version 2
run BaseLeach-0-20190517-11:21:33-18108
attr configname BaseLeach
attr datetime 20190517-11:21:33
attr experiment BaseLeach
attr inifile base_net.ini
attr iterationvars $0=50
attr iterationvarsf 50-
attr measurement $0=50
attr network impro_leach.simulations.Base_net
attr processid 18108
attr repetition 0
attr replication #0
attr resultdir results
attr runnumber 0
attr seedset 0
param *.P 0.10
param *.edge 50
param *.Nnodes 20
param *.node[*].bitrate 100000
param *.baseStation.bitrate 100000

vector 0 Base_net.node[0] batteryLevel:vector ETV
attr interpolationmode none
attr source energy
attr title "battery level, vector"
vector 1 Base_net.node[1] batteryLevel:vector ETV
attr interpolationmode none
attr source energy
attr title "battery level, vector"
vector 2 Base_net.node[2] batteryLevel:vector ETV
attr interpolationmode none
attr source energy
attr title "battery level, vector"
vector 3 Base_net.node[3] batteryLevel:vector ETV
attr interpolationmode none
attr source energy
attr title "battery level, vector"
vector 4 Base_net.node[4] batteryLevel:vector ETV
attr interpolationmode none
attr source energy
attr title "battery level, vector"
vector 5 Base_net.node[5] batteryLevel:vector ETV
attr interpolationmode none
attr source energy
attr title "battery level, vector"
vector 6 Base_net.node[6] batteryLevel:vector ETV
attr interpolationmode none
attr source energy
attr title "battery level, vector"
vector 7 Base_net.node[7] batteryLevel:vector ETV
attr interpolationmode none
attr source energy
attr title "battery level, vector"
vector 8 Base_net.node[8] batteryLevel:vector ETV
attr interpolationmode none
attr source energy
attr title "battery level, vector"
vector 9 Base_net.node[9] batteryLevel:vector ETV
attr interpolationmode none
attr source energy
attr title "battery level, vector"
vector 10 Base_net.node[10] batteryLevel:vector ETV
attr interpolationmode none
attr source energy
attr title "battery level, vector"
vector 11 Base_net.node[11] batteryLevel:vector ETV
attr interpolationmode none
attr source energy
attr title "battery level, vector"
vector 12 Base_net.node[12] batteryLevel:vector ETV
attr interpolationmode none
attr source energy
attr title "battery level, vector"
vector 13 Base_net.node[13] batteryLevel:vector ETV
attr interpolationmode none
attr source energy
attr title "battery level, vector"
vector 14 Base_net.node[14] batteryLevel:vector ETV
attr interpolationmode none
attr source energy
attr title "battery level, vector"
vector 15 Base_net.node[15] batteryLevel:vector ETV
attr interpolationmode none
attr source energy
attr title "battery level, vector"
vector 16 Base_net.node[16] batteryLevel:vector ETV
attr interpolationmode none
attr source energy
attr title "battery level, vector"
vector 17 Base_net.node[17] batteryLevel:vector ETV
attr interpolationmode none
attr source energy
attr title "battery level, vector"
vector 18 Base_net.node[18] batteryLevel:vector ETV
attr interpolationmode none
attr source energy
attr title "battery level, vector"
vector 19 Base_net.node[19] batteryLevel:vector ETV
attr interpolationmode none
attr source energy
attr title "battery level, vector"
0	83	0.00448207071	0.5
0	274	1.464481612826	0.4989
0	426	3.164482437784	0.4987192
0	511	4.204483484925	0.4983118
0	711	5.6244829799	0.4972118
0	896	7.124483569156	0.497031
0	1049	8.44448394628	0.496767
0	1214	9.924484511966	0.4965604
0	1309	11.20448584195	0.4962946
0	1431	12.604486313355	0.4951946
0	1585	14.164485973322	0.4940946
0	1760	15.484487350446	0.4938666
0	1760	15.484487350446	0.4938266
0	1927	17.084487057553	0.4927266
0	2070	18.224487222545	0.492232
0	2265	19.64448771752	0.4920512
0	2430	21.244488424628	0.4918232
0	2519	22.40448961319	0.4915574
0	2693	23.804489084595	0.4904574
0	2878	25.524489933124	0.4902508
0	3031	26.904490380958	0.489749
0	3160	28.284490828793	0.4893416
0	3253	29.404491970215	0.4890398
0	3413	31.024491700892	0.4879398
0	3610	32.224492936595	0.4873962
0	3610	32.224492936595	0.4873862
0	3759	33.64449343157	0.4862862
0	3759	33.64449343157	0.4862662
0	3914	35.284493185818	0.4851662
0	4029	36.464493397951	0.4848644
0	4185	37.844493845785	0.4846578
0	4392	39.22449429362	0.4844298
0	4556	40.724494882876	0.4842232
0	4717	42.304495566413	0.4839592
0	4861	43.424495707835	0.4836952
0	5041	45.104496509223	0.4834886
0	5148	46.264496697786	0.4829868
0	5332	47.664497169191	0.482806
0	5481	49.084497664166	0.4826252
0	5660	50.484498135571	0.4824176
0	5835	51.924498654116	0.4819316
0	6059	53.22450000767	0.4817114
0	6059	53.22450000767	0.4817014
0	6228	54.664500526216	0.4806014
0	6228	54.664500526216	0.4805714
0	6401	56.224500186182	0.4794714
0	6530	57.684500728298	0.479068
0	6623	58.80450186972	0.4787662
0	6797	60.564501765389	0.4776662
0	6882	61.60450281253	0.4772412
0	7053	63.084502378216	0.4761412
0	7203	64.464502826051	0.4759336
0	7356	65.864503297456	0.475727
0	7515	67.564504122414	0.4755462
0	7646	68.904504523108	0.4751212
0	7836	70.02450466453	0.4748572
0	7991	71.484505206646	0.4746764
0	8178	72.944505748762	0.4744688
0	8316	74.564506479439	0.4740654
0	8469	75.804506762282	0.4735636
0	8598	77.284507327968	0.4731602
0	8755	78.44450751653	0.4728584
0	8917	79.824507964365	0.4726382
0	9029	81.2045094122	0.4724316
0	9197	82.664508954316	0.4713316
0	9366	84.04450940215	0.471125
0	9525	85.764510250679	0.4709184
0	9688	86.82451032139	0.470511
0	9873	88.324510910646	0.4703302
0	10038	89.684511334911	0.4699228
0	10179	91.304512065588	0.4697152
0	10358	92.464512254151	0.4694512
0	10537	93.924512796266	0.4692436
0	10736	95.264513196961	0.4689796
0	10870	96.664513668366	0.468772
0	11032	98.384515516894	0.4685654
0	11032	98.384515516894	0.4683754
0	11196	99.524514681886	0.4672754
0	11336	101.164515436134	0.4670114
0	11488	102.264515553986	0.4665096
0	11612	103.664516025391	0.466302
0	11749	105.064516496796	0.4660954
0	11932	106.624517156762	0.4659146
0	12113	107.884517463176	0.4654896
0	12228	109.264517911011	0.465282
0	12432	110.664518382416	0.4651012
0	12552	112.084518877391	0.4649204
0	12773	113.464519325226	0.4647128
0	12912	115.104520079473	0.4645052
0	13051	116.524520574449	0.4642412
0	13140	117.60452166873	0.4637922
0	13314	119.364521564399	0.4626922
0	13451	120.764522035804	0.4622888
0	13602	121.984522295077	0.4618814
0	13758	123.264522625061	0.4615796
0	13880	124.664523096466	0.4613988
0	14076	126.124523638581	0.461218
0	14210	127.704524322118	0.4609162
0	14301	128.80452543997	0.4606522
0	14423	130.204525911375	0.4595522
0	14607	131.744525547772	0.4584522
0	14764	133.164526042747	0.458232
0	14935	134.624526584862	0.4578246
0	15100	135.924526938416	0.4574172
0	15257	137.504527621953	0.4569226
0	15423	138.704528857656	0.4564976
0	15423	138.704528857656	0.4564476
0	15557	140.064528281921	0.4553476
0	15716	141.764529106879	0.454804
0	15905	142.924529295441	0.4544006
0	16072	144.324529766846	0.4539972
0	16292	145.664530167541	0.4537332
0	16380	147.004531568235	0.4535256
0	16548	148.464531110351	0.4524256
0	16687	149.964531699607	0.4522448
0	16844	151.564532406714	0.4520168
0	16978	152.684532548136	0.4515918
0	17135	154.104533043111	0.4513842
0	17287	155.764533820929	0.4509352
0	17424	157.164534292334	0.4505318
0	17550	158.244534386615	0.4498838
0	17728	159.664534881591	0.4496772
0	17831	161.004536282285	0.4494696
0	17953	162.40453675369	0.4483696
0	18117	163.844537272235	0.4472696
0	18117	163.844537272235	0.4472496
0	18341	165.264536767211	0.4461496
0	18501	166.664537238616	0.4459688
0	18670	168.224537898582	0.4457622
0	18831	169.424538134285	0.4453588
0	18992	171.164539006384	0.4451512
0	19125	172.524539430649	0.4447478
0	19260	173.664539595641	0.4442988
0	19413	175.304540349888	0.444118
0	19536	176.564540656302	0.443854
0	19691	177.884541033426	0.4436338
0	19878	179.364541599112	0.4434262
0	20047	180.764542070517	0.4430228
0	20201	182.064542424071	0.4427588
0	20347	183.464542895476	0.442578
0	20495	184.84454334331	0.4423972
0	20687	186.304543885426	0.4421906
0	20820	187.884544568963	0.4419626
0	21003	189.064544781096	0.4416608
0	21150	190.764545606054	0.4414328
0	21257	191.864545723906	0.4410254
0	21424	193.564546548864	0.4408446
0	21608	194.704546713856	0.4404196
0	21756	196.144548232402	0.4399336
0	21756	196.144548232402	0.4398636
0	21847	197.404548538815	0.4387636
0	22015	198.864548080931	0.4376636
0	22190	200.424548740897	0.4374828
0	22327	201.964549377294	0.4370338
0	22470	203.024550448005	0.4363858
0	22470	203.024550448005	0.4363758
0	22581	204.40455089584	0.4352758
0	22753	205.884550461526	0.4341758
0	22905	207.284550932931	0.4339556
0	23078	208.784552522187	0.433748
0	23078	208.784552522187	0.433658
0	23216	210.104551899311	0.432558
0	23315	211.404553252865	0.4322562
0	23485	213.124553101394	0.4311562
0	23632	214.224553219245	0.4306702
0	23775	215.764553855642	0.4304894
0	23958	217.124554279906	0.4302614
0	24098	218.484554704171	0.4297668
0	24286	219.964555269857	0.4295592
0	24419	221.524555929824	0.4291558
0	24575	222.664556094816	0.4286698
0	24733	224.02455651908	0.4284622
0	24910	225.444558014055	0.4282556
0	24910	225.444558014055	0.4282356
0	25073	226.924557579741	0.4271356
0	25222	228.584559357559	0.4268698
0	25222	228.584559357559	0.4266798
0	25347	229.64455942827	0.4255798
0	25347	229.64455942827	0.4255598
0	25543	231.064558923246	0.4244598
0	25723	232.524560465361	0.424279
0	25723	232.524560465361	0.424219
0	25856	234.084560125328	0.423119
0	26013	235.444560549593	0.4228172
0	26102	236.604561738155	0.4225532
0	26288	238.0445622567	0.4214532
0	26288	238.0445622567	0.4214332
0	26490	239.424561704535	0.4203332
0	26668	240.884562246651	0.4201524
0	26813	242.284563718056	0.4199448
0	26813	242.284563718056	0.4199048
0	26968	243.964563519444	0.4188048
0	27098	245.064563637296	0.4179304
0	27251	246.464564108701	0.4177102
0	27407	248.124564886519	0.4175036
0	27564	249.504565334353	0.4170176
0	27701	250.964565876469	0.4165926
0	27850	252.204566159312	0.4161676
0	27985	253.464566465726	0.4157186
0	28092	254.80456786642	0.4155378
0	28280	256.264567408536	0.4144378
0	28431	257.924568186354	0.414257
0	28561	259.044568327775	0.413808
0	28722	260.484568846321	0.41358
0	28875	261.884569317726	0.4133724
0	29059	263.304570812701	0.4131648
0	29059	263.304570812701	0.4131148
0	29217	264.664570236966	0.4120148
0	29378	266.144570802652	0.411834
0	29527	267.524571250486	0.411606
0	29676	268.904571698321	0.411378
0	29826	270.544572452569	0.41115
0	29965	271.964572947544	0.4106554
0	30104	273.104573112536	0.4100464
0	30249	274.704573819643	0.4095028
0	30402	275.944575102487	0.4092388
0	30402	275.944575102487	0.4091688
0	30559	277.384574621032	0.4080688
0	30718	278.944575280999	0.407767
0	30873	280.064575422421	0.407119
0	31041	281.464575893826	0.406855
0	31206	282.964576483082	0.4066484
0	31346	284.564577190189	0.4063826
0	31489	285.6245782609	0.4058808
0	31489	285.6245782609	0.4058708
0	31665	287.164577897297	0.4047708
0	31753	288.40457918014	0.4042848
0	31875	289.804579651545	0.4031848
0	32049	291.564579547214	0.4020848
0	32192	292.624579617925	0.4014368
0	32351	294.324580442884	0.401256
0	32485	295.464580607876	0.400807
0	32615	296.864581079281	0.4006004
0	32798	298.524581857099	0.4003938
0	32935	299.964582375644	0.399892
0	33092	301.344582823479	0.399244
0	33231	302.784584342024	0.398635
0	33231	302.784584342024	0.398445
0	33356	303.844584412735	0.397345
0	33356	303.844584412735	0.397325
0	33519	305.564584261264	0.396225
0	33669	306.764584496967	0.395616
0	33811	308.164584968372	0.395352
0	33979	309.564585439777	0.395124
0	34111	311.084586052603	0.39486
0	34254	312.544586594719	0.3945582
0	34389	313.924587042554	0.3940636
0	34478	315.004588136835	0.3936146
0	34682	316.524587749661	0.3925146
0	34793	317.884588173926	0.3922944
0	34950	319.484588881033	0.3920868
0	35089	320.664590093166	0.391785
0	35089	320.664590093166	0.391755
0	35218	322.064589564571	0.390655
0	35401	323.624590224537	0.3904742
0	35551	324.964590625232	0.3900492
0	35639	326.204591908075	0.3897834
0	35813	327.964591803744	0.3886834
0	35946	329.324592228009	0.388276
0	36035	330.40459332229	0.38779
0	36223	332.104593147248	0.38669
0	36394	333.24459331224	0.386426
0	36568	334.664593807216	0.386198
0	36731	336.04459425505	0.3859904
0	36894	337.524594820736	0.3857702
0	37034	339.084595480703	0.38555
0	37183	340.224595645695	0.3852842
0	37338	341.64459714067	0.3850766
0	37338	341.64459714067	0.3850566
0	37596	343.044596612075	0.3839566
0	37741	344.764597460604	0.38375
0	37876	346.144597908439	0.383141
0	37963	347.20459897915	0.3826464
0	38109	348.684598544836	0.3815464
0	38266	350.284599251943	0.3813388
0	38359	351.404600393365	0.381073
0	38481	352.80460086477	0.379973
0	38665	354.404600571877	0.378873
0	38820	355.64460185472	0.3786072
0	38820	355.64460185472	0.3785872
0	38977	357.364601703249	0.3774872
0	39108	358.704602103943	0.3769854
0	39251	360.164602646059	0.3767214
0	39388	361.564603117464	0.375847
0	39541	362.604603164605	0.3749726
0	39723	364.064603706721	0.374766
0	39889	365.604604343117	0.3745584
0	40072	366.80588560239	0.3742926
0	40236	368.524605427349	0.3731926
0	40347	369.664605592341	0.3727436
0	40462	371.004606993035	0.3725628
0	40630	372.464606535151	0.3714628
0	40827	373.864607006556	0.3712562
0	40966	375.484607737233	0.3710496
0	41059	376.604608878655	0.3707478
0	41225	378.284608680043	0.3696478
0	41370	379.764609245729	0.369346
0	41455	380.80461029287	0.368698
0	41660	382.244609811415	0.367598
0	41766	383.60461123568	0.36737
0	41942	385.384612154919	0.36627
0	41942	385.384612154919	0.36608
0	42089	386.644611461333	0.36498
0	42240	387.844611697035	0.3647142
0	42347	389.2046131213	0.3644862
0	42469	390.604613592705	0.3633862
0	42644	392.104613181961	0.3622862
0	42790	393.464613606226	0.3618002
0	42919	394.864614077631	0.3616194
0	43091	396.224614501895	0.3614386
0	43255	397.964615373994	0.361232
0	43435	399.084615515416	0.3608286
0	43583	400.504616010391	0.360621
0	43734	402.164616788209	0.3600774
0	43856	403.22461685892	0.3594294
0	44056	404.764617495317	0.3592228
0	44187	406.304618131713	0.358921
0	44278	407.404619249565	0.358657
0	44445	408.864618791681	0.357557
0	44632	410.324619333796	0.3573368
0	44832	411.664619734491	0.3569334
0	44999	413.344620535879	0.3567258
0	45154	414.464621677301	0.3561168
0	45154	414.464621677301	0.3560868
0	45322	415.984622290127	0.3549868
0	45322	415.984622290127	0.3548968
0	45490	417.24462159654	0.3537968
0	45661	418.664622091516	0.3535902
0	45874	420.064622562921	0.3533836
0	46011	421.464623034326	0.3531196
0	46166	423.124623812144	0.3529388
0	46255	424.204624906425	0.3524898
0	46468	425.664624448541	0.3513898
0	46594	427.164625037797	0.3511832
0	46762	428.44462536778	0.3509552
0	46921	429.904625909896	0.3507272
0	47069	431.524626640574	0.3504614
0	47215	432.724626876276	0.3499754
0	47343	434.164627394822	0.3497474
0	47493	435.464627748376	0.3495272
0	47647	436.864628219781	0.3493206
0	47798	438.484628950458	0.349114
0	47949	439.724630233301	0.3488122
0	47949	439.724630233301	0.3487522
0	48082	441.224629822557	0.3476522
0	48244	442.44463008183	0.3471086
0	48350	443.804631506095	0.3468884
0	48518	445.264631048211	0.3457884
0	48726	446.704631566756	0.3456076
0	48867	448.104632038161	0.3453418
0	49071	449.584632603847	0.3448928
0	49221	450.964633051682	0.3443982
0	49359	452.544633735219	0.3441324
0	49530	453.64463485307	0.3436378
0	49530	453.64463485307	0.3436178
0	49715	455.044635324475	0.3425178
0	49715	455.044635324475	0.3424978
0	49861	456.464634819451	0.3413978
0	50037	458.004635455847	0.3411912
0	50170	459.524636068674	0.3406966
0	50323	460.644637210095	0.3402106
0	50323	460.644637210095	0.3401906
0	50507	462.084637728641	0.3390906
0	50507	462.084637728641	0.3390506
0	50654	463.504637223616	0.3379506
0	50831	464.82463760074	0.3376848
0	51007	466.524638425699	0.337504
0	51172	467.704638637831	0.3370966
0	51261	469.004639991385	0.3368326
0	51441	470.42463948636	0.3357326
0	51604	472.164640358459	0.3355518
0	51757	473.264640476311	0.3346774
0	51928	474.664640947716	0.3344572
0	52085	476.124642489831	0.3342506
0	52085	476.124642489831	0.3341906
0	52230	477.744642220509	0.3330906
0	52373	478.82464231479	0.332596
0	52518	480.364642951187	0.3323884
0	52645	481.664643304741	0.3321604
0	52822	483.144643870427	0.3319796
0	52981	484.684644506823	0.3317138
0	53123	485.824644671815	0.3312192
0	53284	487.284645213931	0.3310126
0	53388	488.604646591055	0.330805
0	53562	490.364646486724	0.329705
0	53699	491.764646958129	0.329096
0	53806	492.864647075981	0.3282216
0	53921	494.204648476675	0.328015
0	54101	495.724649089501	0.326915
0	54101	495.724649089501	0.326855
0	54269	497.005929443055	0.325755
0	54476	498.464648961601	0.324655
0	54570	499.804650362295	0.3244742
0	54738	501.264649904411	0.3233742
0	54913	502.824650564377	0.3231934
0	55102	504.04465082365	0.3227684
0	55271	505.604651483617	0.3225618
0	55434	506.924651860741	0.3220672
0	55557	508.364652379287	0.3218032
0	55708	509.664652732841	0.321583
0	55901	511.204653369237	0.3214022
0	56059	512.484653699221	0.3211004
0	56213	514.164654500609	0.3208928
0	56355	515.324654689171	0.3202838
0	56521	516.664656089866	0.3198804
0	56521	516.664656089866	0.3198504
0	56673	518.104655608411	0.3187504
0	56871	519.504656079816	0.3183014
0	57046	521.004656669072	0.3180734
0	57181	522.544657305469	0.31767
0	57268	523.60465837618	0.3171754
0	57412	525.064657918296	0.3160754
0	57573	526.464658389701	0.3158688
0	57779	527.924658931816	0.3156622
0	57950	529.24466030894	0.3153964
0	57950	529.24466030894	0.3153764
0	58096	530.664659803916	0.3142764
0	58255	532.364660628874	0.3140956
0	58340	533.404661676015	0.3136922
0	58514	535.164661571684	0.3125922
0	58707	536.244662665965	0.3120904
0	58707	536.244662665965	0.3120704
0	58800	537.60466309023	0.3109704
0	58960	539.224662820907	0.3098704
0	59151	540.464663103751	0.3093268
0	59266	541.864663575156	0.309146
0	59419	543.22466399942	0.3089394
0	59534	544.604665447255	0.3087586
0	59708	546.364665342924	0.3076586
0	59835	547.444665437205	0.3067842
0	59998	548.80466586147	0.306564
0	60115	550.204667332875	0.3063574
0	60269	551.764666992842	0.3052574
0	60471	553.084667369966	0.3050372
0	60674	554.42466777066	0.3048296
0	60828	556.164668642759	0.304622
0	60963	557.284668784181	0.3042146
0	61066	558.604670161305	0.304007
0	61188	560.00467063271	0.302907
0	61401	561.464670174826	0.301807
0	61543	563.124670952644	0.3015868
0	61700	564.504671400478	0.3011008
0	61853	565.824671777602	0.3006758
0	61990	567.004671989735	0.3002684
0	62171	568.644672743983	0.3000618
0	62326	569.964673121107	0.2997978
0	62465	571.564673828214	0.299496
0	62596	572.904674228908	0.2990886
0	62739	574.364674771024	0.2988246
0	62899	575.424674841735	0.2983228
0	63073	577.064675595983	0.2981152
0	63166	578.204676760975	0.2978134
0	63310	579.664676303091	0.2967134
0	63425	581.004677703785	0.2965326
0	63601	582.784678623024	0.2954326
0	63601	582.784678623024	0.2952426
0	63684	583.804678646595	0.2941426
0	63851	585.264678188711	0.2930426
0	64000	586.644678636545	0.292835
0	64136	588.084679155091	0.2926284
0	64271	589.464679602926	0.2924208
0	64443	590.924680145041	0.2922142
0	64587	592.524680852149	0.291994
0	64771	593.684681040711	0.291545
0	64865	595.004682417835	0.2913374
0	65042	596.40596291281	0.2902374
0	65198	597.824682384215	0.2891374
0	65424	599.264682902761	0.2889566
0	65566	600.964683727719	0.2887286
0	65651	602.00468477486	0.2881196
0	65842	603.464684316976	0.2870196
0	65994	605.164685141934	0.286812
0	66111	606.364685377637	0.286164
0	66298	607.804685896182	0.285936
0	66471	609.044687179025	0.285672
0	66471	609.044687179025	0.285652
0	66644	610.464686674001	0.284552
0	66822	611.924687216116	0.2843454
0	66986	613.284687640381	0.2841252
0	67178	614.684688111786	0.283905
0	67348	616.084688583191	0.2836974
0	67513	617.464689031026	0.2834898
0	67636	618.884689526001	0.283309
0	67798	620.284689997406	0.2831014
0	67974	621.944690775224	0.2828938
0	68059	623.004691845935	0.2824904
0	68255	624.504692435191	0.2813904
0	68255	624.504692435191	0.2813404
0	68350	625.804692788745	0.2802404
0	68529	627.324692401571	0.2791404
0	68691	628.824692990827	0.2789202
0	68822	630.284693532943	0.2786544
0	68953	631.624693933637	0.2783526
0	69106	633.184695593604	0.277809
0	69106	633.184695593604	0.277619
0	69241	634.564695041439	0.276519
0	69392	635.764695277142	0.275871
0	69511	637.164695748547	0.2754636
0	69664	638.724696408514	0.2752356
0	69785	639.964696691357	0.2747496
0	69946	641.22469699777	0.2745216
0	70117	642.724697587026	0.274314
0	70304	644.064697987721	0.274086
0	70467	645.464698459126	0.2739052
0	70638	647.024699119092	0.2737244
0	70777	648.304699449076	0.273317
0	70928	649.964700226894	0.2727734
0	71058	651.064700344746	0.27237
0	71277	652.464700816151	0.272142
0	71440	653.864701287556	0.2719344
0	71540	655.20470268825	0.2717278
0	71724	656.744702324647	0.2706278
0	71871	658.02470265463	0.2704076
0	72070	659.584703314597	0.2702
0	72157	660.80470457387	0.2698982
0	72331	662.564704469539	0.2687982
0	72536	663.744704681672	0.2681502
0	72793	665.024705011655	0.2677252
0	72931	666.564705648052	0.267505
0	73036	667.804706930895	0.267277
0	73223	669.364706590862	0.266177
0	73391	670.704706991556	0.265913
0	73584	672.144707510102	0.265685
0	73715	673.464707887226	0.2653832
0	73868	675.104708641473	0.2651766
0	73959	676.204709759325	0.2649126
0	74130	677.684709325011	0.2638126
0	74304	679.084710796416	0.263605
0	74304	679.084710796416	0.263565
0	74471	680.684710503523	0.262465
0	74601	681.864710715656	0.2619704
0	74709	683.20471211635	0.2617638
0	74900	684.664711658466	0.2606638
0	75054	686.384713506994	0.2604436
0	75054	686.384713506994	0.2602536
0	75169	687.564712719127	0.2591536
0	75364	688.864713072681	0.2589334
0	75511	690.564713897639	0.2586694
0	75665	691.664714015491	0.2582444
0	75765	693.004715416185	0.2580242
0	75960	694.40599591116	0.2569242
0	76140	696.024715618267	0.2558242
0	76275	697.264715901111	0.2555602
0	76446	698.844716584648	0.2553794
0	76593	700.02471679678	0.2551154
0	76757	701.504717362466	0.2549346
0	76891	702.80471771602	0.2544856
0	77058	704.524718564549	0.254279
0	77147	705.60471965883	0.25383
0	77269	707.004720130235	0.25273
0	77435	708.684719931623	0.25163
0	77528	709.804721073045	0.2513282
0	77730	711.304721662301	0.2502282
0	77730	711.304721662301	0.2501782
0	77870	712.604721015855	0.2490782
0	78050	714.144721652252	0.2488716
0	78203	715.444722005805	0.2484466
0	78373	716.84472247721	0.2482186
0	78537	718.324723042896	0.2479984
0	78681	719.684723467161	0.2476966
0	78869	721.144724009277	0.247489
0	78998	722.684724645673	0.2470856
0	79135	724.084725117078	0.2468198
0	79277	725.284725352781	0.246554
0	79435	726.704725847756	0.2463464
0	79578	728.284726531293	0.2460446
0	79759	729.604726908417	0.2457428
0	79935	730.864727214831	0.2453394
0	80087	732.584729063359	0.2451328
0	80087	732.584729063359	0.2449428
0	80222	733.964728511194	0.2438428
0	80307	735.004729558335	0.2434354
0	80429	736.40473002974	0.2423354
0	80551	737.804730501145	0.2412354
0	80741	739.264730043261	0.2401354
0	80842	740.604731443955	0.2399278
0	81002	742.224731174632	0.2388278
0	81182	743.504731504616	0.2382842
0	81346	744.82473188174	0.2380184
0	81521	746.264732400286	0.2378108
0	81648	747.684732895261	0.23763
0	81805	749.284733602368	0.2374224
0	81963	750.564733932352	0.2371206
0	82109	751.924734356616	0.2368188
0	82284	753.324734828021	0.2365986
0	82410	754.624735181575	0.2363328
0	82526	756.00473662941	0.2361262
0	82698	757.484736195096	0.2350262
0	82865	758.84473761936	0.234806
0	82865	758.84473761936	0.234786
0	83098	760.244737090765	0.233686
0	83267	761.664737585741	0.2334794
0	83419	763.364738410699	0.2332592
0	83568	764.644738740683	0.2328342
0	83714	765.924739070666	0.2325684
0	83890	767.304739518501	0.232165
0	84037	768.724740013476	0.2318632
0	84185	770.104740461311	0.2315992
0	84337	771.764741239129	0.2313712
0	84444	772.864741356981	0.2309678
0	84657	774.224742781245	0.2307612
0	84657	774.224742781245	0.2307512
0	84760	775.60474322908	0.2296512
0	84954	777.344743101179	0.2285512
0	85128	778.464743242601	0.2279032
0	85265	779.844743690435	0.2276956
0	85446	781.264744185411	0.227489
0	85611	782.764744774667	0.2272814
0	85721	784.064745128221	0.2270174
0	85904	785.624745788187	0.2268366
0	86055	786.964746188882	0.2264116
0	86180	788.424746730997	0.2258026
0	86331	789.964747367394	0.225259
0	86474	791.124747555956	0.22465
0	86644	792.42474790951	0.224386
0	86816	794.004748593047	0.2241794
0	87016	795.264748899461	0.2239136
0	87170	796.764749488717	0.223706
0	87354	798.064749842271	0.223478
0	87530	799.544750407957	0.2232578
0	87671	801.164751138634	0.222956
0	87823	802.264751256486	0.2220816
0	87989	803.864751963593	0.221874
0	88128	805.064752199296	0.2215722
0	88303	806.624752859262	0.2213646
0	88456	807.864753142106	0.2209612
0	88627	809.504753896353	0.2207546
0	88766	810.964754438469	0.2204906
0	88851	812.00475548561	0.2198426
0	89046	813.406035980585	0.2187426
0	89213	814.80475542842	0.2176426
0	89331	816.204756899825	0.217436
0	89515	817.804756606932	0.216336
0	89682	819.024756866205	0.2160342
0	89868	820.42475733761	0.2158266
0	90038	821.944757950437	0.2156458
0	90175	823.504758610403	0.21538
0	90312	824.664758798966	0.215116
0	90465	826.064759270371	0.2149352
0	90636	827.644759953908	0.2147286
0	90725	828.80476114247	0.2144646
0	90899	830.564761038139	0.2133646
0	91088	831.64476113242	0.2128628
0	91185	833.004762556685	0.2126562
0	91353	834.464762098801	0.2115562
0	91510	836.144762900189	0.2110126
0	91702	837.2047629709	0.210518
0	91876	838.804763678007	0.2103114
0	91967	840.00476491371	0.2100474
0	92089	841.404765385115	0.2089474
0	92211	842.80476585652	0.2078474
0	92401	844.264765398636	0.2067474
0	92571	845.664765870041	0.2065272
0	92730	847.024767294305	0.2063464
0	92730	847.024767294305	0.2063364
0	92910	848.604766977842	0.2052364
0	93065	850.024767472817	0.2049346
0	93241	851.264767755661	0.2045272
0	93396	852.744768321347	0.2042632
0	93574	854.184768839892	0.204043
0	93683	855.464769169876	0.2037412
0	93866	857.024769829842	0.2035346
0	94026	858.284770136256	0.2031312
0	94172	859.964770937644	0.202911
0	94257	861.004771984785	0.202263
0	94431	862.764771880454	0.201163
0	94600	863.844771974735	0.200554
0	94754	865.284772493281	0.2003338
0	94928	866.664773941116	0.2001262
0	94928	866.664773941116	0.2000962
0	95082	868.00605436538	0.1989962
0	95252	869.764774237479	0.1978962
0	95337	870.80477528462	0.1974888
0	95512	872.304774873876	0.1963888
0	95666	873.704775345281	0.1961608
0	95810	875.064775769546	0.1958968
0	95962	876.684776500223	0.1956892
0	96055	877.804777641645	0.1953874
0	96177	879.20477811305	0.1942874
0	96367	880.904777938008	0.1931874
0	96490	882.02477807943	0.1927624
0	96627	883.464778597976	0.1925816
0	96742	884.80477999867	0.192375
0	96939	886.304779587926	0.191275
0	97101	887.864780247893	0.191047
0	97232	889.224780672157	0.1907452
0	97406	890.42478090786	0.1902016
0	97516	891.804782355695	0.189995
0	97704	893.384782039232	0.188895
0	97890	894.704782416356	0.188446
0	98032	896.364783194174	0.188218
0	98161	897.684783571298	0.1878146
0	98322	899.024783971992	0.1875128
0	98439	900.364784372687	0.1871094
0	98596	901.964785079794	0.1868814
0	98681	903.004786126935	0.1862724
0	98891	904.464785669051	0.1851724
0	99040	906.164786494009	0.1849522
0	99125	907.20478754115	0.1845272
0	99322	908.624787036125	0.1834272
0	99432	910.00478848396	0.1832196
0	99633	911.504788073216	0.1821196
0	99768	912.864788497481	0.1818538
0	99930	914.584790346009	0.1816472
0	99930	914.584790346009	0.1814572
0	100061	915.924789746704	0.1803572
0	100202	917.364790265249	0.1798712
0	100339	918.764790736654	0.1792622
0	100481	919.924790925216	0.1786532
0	100643	921.384791467332	0.178433
0	100788	922.724791868026	0.1781312
0	100953	924.064792268721	0.177911
0	101151	925.524792810836	0.1777302
0	101283	926.84479418796	0.1774644
0	101283	926.84479418796	0.1774444
0	101462	928.404793847927	0.1763444
0	101598	929.60479408363	0.175941
0	101762	931.064794625746	0.1757344
0	101915	932.704795379993	0.1751908
0	102090	933.964795686407	0.1749268
0	102285	935.20607699282	0.174625
0	102484	936.644796487795	0.173525
0	102684	938.084797006341	0.1733048
0	102842	939.404797383465	0.1730846
0	102958	940.80479885487	0.172878
0	103080	942.204799326275	0.171778
0	103256	943.984800245514	0.170678
0	103256	943.984800245514	0.170488
0	103391	945.364799693349	0.169388
0	103552	946.42479976406	0.168963
0	103729	948.024800471167	0.1687564
0	103884	949.264801754011	0.168353
0	103884	949.264801754011	0.168323
0	104055	950.944801555399	0.167223
0	104224	952.144801791102	0.1668196
0	104355	953.704802451068	0.1665994
0	104498	955.164802993184	0.1663354
0	104635	956.564803464589	0.165461
0	104762	957.64480455887	0.165036
0	104762	957.64480455887	0.165016
0	104948	959.104804100986	0.163916
0	105084	960.624804713812	0.16343
0	105228	961.864804996656	0.1628864
0	105425	963.264805468061	0.1626798
0	105576	964.606086892325	0.1624732
0	105774	966.104806458011	0.1613732
0	105920	967.524806952986	0.1611452
0	106102	968.964807471532	0.1609172
0	106257	970.484808084358	0.1606154
0	106391	971.684808320061	0.1601136
0	106495	973.004809697185	0.159906
0	106680	974.44480921573	0.158806
0	106851	975.864809710706	0.1585994
0	107031	977.304810229251	0.1583918
0	107156	978.764810771367	0.15809
0	107307	980.064811124921	0.157862
0	107480	981.564811714177	0.1576812
0	107647	982.924813138441	0.1573794
0	107647	982.924813138441	0.1573194
0	107786	984.264812539136	0.1562194
0	107943	985.684813034111	0.1560128
0	108098	987.364813835499	0.1555268
0	108183	988.40481488264	0.1549178
0	108379	989.884814448326	0.1538178
0	108526	991.564815249714	0.1536102
0	108686	992.704815414706	0.1531852
0	108836	994.364816192524	0.1527362
0	108986	995.564816428227	0.1523328
0	109126	997.164817135334	0.152067
0	109272	998.344817347467	0.1511926
0	109416	999.964818078144	0.1509724
0	109550	1001.084818219566	0.150098
0	109745	1002.464818667401	0.1498904
0	109905	1004.004819303797	0.1496828
0	110040	1005.524819916624	0.149381
0	110181	1006.964820435169	0.148895
0	110318	1008.364820906574	0.1483932
0	110449	1009.464821024426	0.1475188
0	110608	1011.164821849384	0.1469752
0	110739	1012.264821967236	0.1463662
0	110888	1013.64482341507	0.1461854
0	110888	1013.64482341507	0.1461654
0	111066	1015.064822910046	0.1450654
0	111263	1016.484823405021	0.1448578
0	111399	1017.864823852856	0.1446376
0	111554	1019.524824630674	0.1444568
0	111695	1020.964825149219	0.1439708
0	111780	1022.00482619636	0.1435674
0	111902	1023.404826667765	0.1424674
0	112092	1024.864826209881	0.1413674
0	112245	1026.564827034839	0.1411034
0	112392	1027.64482712912	0.1407
0	112541	1029.044828600525	0.1404934
0	112541	1029.044828600525	0.1404734
0	112743	1030.464828095501	0.1393734
0	112899	1031.944828661187	0.1391454
0	113042	1033.564829391864	0.138742
0	113217	1034.664829509716	0.1378676
0	113364	1036.364830334674	0.13766
0	113495	1037.464830452526	0.137235
0	113683	1038.924830994641	0.1370284
0	113839	1040.424831583897	0.1367266
0	113982	1041.724831937451	0.1363192
0	114077	1043.004833267435	0.1358246
0	114261	1044.604832974542	0.1347246
0	114440	1046.024833469517	0.1344588
0	114571	1047.504834035203	0.1340514
0	114738	1048.624834176625	0.1337874
0	114923	1050.084834718741	0.1335808
0	115064	1051.724835472989	0.1333606
0	115217	1052.84483561441	0.1328746
0	115410	1054.264836109386	0.132668
0	115553	1055.664836580791	0.1324614
0	115729	1057.064837052196	0.1322538
0	115886	1058.524837594311	0.1320472
0	116028	1059.864837995006	0.131827
0	116218	1061.324838537121	0.1316462
0	116349	1062.664838937816	0.131426
0	116541	1064.04483938565	0.1312058
0	116700	1065.524839951336	0.1309992
0	116840	1066.864840352031	0.1306974
0	117009	1068.344840917717	0.1304772
0	117166	1069.764841412692	0.1302492
0	117299	1071.064841766246	0.1299834
0	117439	1072.564842355502	0.1297632
0	117601	1073.824842661915	0.1295352
0	117800	1075.20484310975	0.1293286
0	117970	1076.964844005419	0.129122
0	118100	1078.064844123271	0.1286202
0	118298	1079.464844594676	0.1284126
0	118484	1080.80612601894	0.1281486
0	118691	1082.264845537486	0.1270486
0	118847	1083.64484698532	0.1267468
0	118847	1083.64484698532	0.1267268
0	119020	1085.064846480296	0.1256268
0	119167	1086.464847951701	0.1254192
0	119167	1086.464847951701	0.1253892
0	119274	1087.804848352395	0.1242892
0	119453	1089.324847965221	0.1231892
0	119595	1090.904848648758	0.122969
0	119734	1092.324849143734	0.122705
0	119823	1093.404850238015	0.122219
0	119945	1094.80485070942	0.121119
0	120146	1096.224850204395	0.120019
0	120317	1097.744850817222	0.1198382
0	120510	1099.104851241486	0.1195724
0	120655	1100.42485161861	0.1193444
0	120845	1101.924852207866	0.1191636
0	120982	1103.264852608561	0.1188996
0	121182	1104.664853079966	0.1186794
0	121353	1106.104853598511	0.1183776
0	121505	1107.544854117057	0.1181118
0	121628	1108.964854612032	0.117846
0	121798	1110.364855083437	0.117618
0	121938	1111.964855790544	0.117354
0	122107	1113.124855979106	0.1169506
0	122260	1114.624856568362	0.1165016
0	122393	1116.124857157619	0.1160156
0	122609	1117.264857322611	0.1155666
0	122725	1118.664857794016	0.115359
0	122924	1120.144858359702	0.1151782
0	123102	1121.464858736826	0.1148764
0	123198	1122.80486013752	0.1146956
0	123372	1124.564860033189	0.1135956
0	123519	1125.744860245322	0.1131706
0	123678	1127.064860622446	0.1129504
0	123825	1128.464861093851	0.1126864
0	123978	1129.864861565256	0.1121428
0	124133	1131.524862343074	0.111962
0	124271	1132.684862531636	0.111513
0	124443	1134.304863262313	0.1113054
0	124566	1135.624863639437	0.110898
0	124766	1136.924863992991	0.1103544
0	124899	1138.264864393686	0.1100526
0	125059	1139.964865218644	0.1098324
0	125186	1141.044866312925	0.109425
0	125186	1141.044866312925	0.109405
0	125342	1142.464865807901	0.108305
0	125482	1143.964866397157	0.1081242
0	125657	1145.264866750711	0.1078962
0	125800	1146.664867222116	0.1077154
0	125973	1148.244867905653	0.1075088
0	126130	1149.624868353487	0.107243
0	126261	1150.864868636331	0.1068396
0	126472	1152.344869202017	0.1066588
0	126557	1153.60487050843	0.106357
0	126743	1155.244870262678	0.105257
0	126890	1156.42487047481	0.104993
0	127063	1157.944871087637	0.1048122
0	127266	1159.264871464761	0.1044088
0	127377	1160.664871936166	0.104107
0	127536	1162.284872666843	0.1039262
0	127703	1163.504872926116	0.1036244
0	127863	1164.864873350381	0.1031384
0	127991	1166.284873845356	0.1029318
0	128182	1167.62487424605	0.1027242
0	128339	1169.084874788166	0.1025434
0	128494	1170.764875589554	0.1023232
0	128655	1171.884875730976	0.1019198
0	128812	1173.404876343802	0.1016996
0	128967	1174.804876815207	0.1012506
0	129100	1176.064877121621	0.1009488
0	129253	1177.464877593026	0.100768
0	129414	1179.184879441554	0.1005872
0	129414	1179.184879441554	0.1003972
0	129582	1180.324879606546	0.099297200000004
0	129582	1180.324879606546	0.099237200000004
0	129728	1181.804879172232	0.098137200000004
0	129851	1183.164879596497	0.097871400000004
0	129956	1184.40488087934	0.097651200000004
0	130078	1185.804881350745	0.096551200000004
0	130248	1187.524881199274	0.095451200000004
0	130415	1188.624882317125	0.095002200000004
0	130415	1188.624882317125	0.094992200000004
0	130627	1190.0448818121	0.093892200000004
0	130765	1191.624882495637	0.093685600000004
0	130912	1193.124883084894	0.093142000000004
0	131025	1194.284883273456	0.092693000000004
0	131184	1195.664883721291	0.092485400000004
0	131291	1197.004885121985	0.091941800000004
0	131413	1198.40488559339	0.090841800000004
0	131603	1200.084885394778	0.089741800000004
0	131740	1201.564885960464	0.089338400000004
0	131879	1202.704886125456	0.088931000000004
0	132040	1204.164886667572	0.088629200000004
0	132183	1205.764887374679	0.088401200000004
0	132367	1206.82488844539	0.087976200000004
0	132367	1206.82488844539	0.087966200000004
0	132473	1208.204888893225	0.086866200000004
0	132661	1209.664888435341	0.085766200000004
0	132844	1211.104888953886	0.085585400000004
0	133001	1212.464889378151	0.085283600000004
0	133102	1213.804890778845	0.085055600000004
0	133270	1215.264890320961	0.083955600000004
0	133430	1216.704890839506	0.083774800000004
0	133621	1218.064891263771	0.083325800000004
0	133784	1219.464891735176	0.083145000000004
0	133945	1220.924892277291	0.082938400000004
0	134093	1222.564893031539	0.082710400000004
0	134240	1223.764893267242	0.082062400000004
0	134389	1225.124893691506	0.081842200000004
0	134582	1226.524894162911	0.081540400000004
0	134714	1227.864894563606	0.081276400000004
0	134937	1229.284895058581	0.081069800000004
0	135071	1230.664895506416	0.080862200000004
0	135258	1232.124896048531	0.080655600000004
0	135414	1233.564896567077	0.080391600000004
0	135586	1234.964897038482	0.080127600000004
0	135721	1236.544897722019	0.079825800000004
0	135878	1237.664897863441	0.079331200000004
0	136023	1239.064898334846	0.079150400000004
0	136213	1240.44489878268	0.078969600000004
0	136367	1242.164899631209	0.078741600000004
0	136496	1243.484900008333	0.078338200000004
0	136667	1244.724900291176	0.078036400000004
0	136833	1246.084900715441	0.077633000000004
0	136972	1247.464901163276	0.077425400000004
0	137180	1248.944901728962	0.077197400000004
0	137265	1250.204903035375	0.076895600000004
0	137440	1251.704902624631	0.075795600000004
0	137572	1253.164903166747	0.075346600000004
0	137729	1254.764903873854	0.075126400000004
0	137887	1255.884904015276	0.074723000000004
0	138067	1257.364904580962	0.074495000000004
0	138194	1258.644904910945	0.074087600000004
0	138351	1260.064905405921	0.073881000000004
0	138482	1261.484905900896	0.073700200000004
0	138595	1262.80490727802	0.073492600000004
0	138717	1264.204907749425	0.072392600000004
0	138891	1265.964907645094	0.071292600000004
0	139033	1267.124907833656	0.070885200000004
0	139181	1268.764908587904	0.070481800000004
0	139398	1269.824908658615	0.069833800000004
0	139584	1271.20490910645	0.069626200000004
0	139758	1272.724909719276	0.069419600000004
0	139907	1274.104910167111	0.069153800000004
0	140077	1275.404910520665	0.068852000000004
0	140249	1277.184912439904	0.068671200000004
0	140249	1277.184912439904	0.068481200000004
0	140436	1278.344911628467	0.067381200000004
0	140589	1279.904912288433	0.066956200000004
0	140720	1281.064912476996	0.066461600000004
0	140911	1282.44491392483	0.066280800000004
0	140911	1282.44491392483	0.066260800000004
0	141082	1283.864913419806	0.065160800000004
0	141213	1285.364914009062	0.064980000000004
0	141408	1286.664914362616	0.064759800000004
0	141595	1288.064914834021	0.064579000000004
0	141778	1289.464915305426	0.064372400000004
0	141937	1290.84491575326	0.064165800000004
0	142087	1292.264916248236	0.063945600000004
0	142243	1293.924917026054	0.063739000000004
0	142376	1295.284917450318	0.063290000000004
0	142533	1296.644917874583	0.062988200000004
0	142654	1297.964918251707	0.062722400000004
0	142759	1299.20491953455	0.062502200000004
0	142881	1300.604920005955	0.061402200000004
0	143092	1302.064920548071	0.060302200000004
0	143092	1302.064920548071	0.060272200000004
0	143188	1303.404920948765	0.059172200000004
0	143368	1304.82492144374	0.058072200000004
0	143368	1304.82492144374	0.058062200000004
0	143530	1306.204920891575	0.056962200000004
0	143735	1307.664921433691	0.056755600000004
0	143878	1309.064921905096	0.056548000000004
0	144032	1310.704922659343	0.056341400000004
0	144123	1311.804923777195	0.056077400000004
0	144289	1313.484923578583	0.054977400000004
0	144502	1314.704923837856	0.054711600000004
0	144669	1316.104924309261	0.054483600000004
0	144759	1317.404925662815	0.054034600000004
0	144942	1318.944925299212	0.052934600000004
0	145058	1320.284925699906	0.052706600000004
0	145239	1321.884926407013	0.052499000000004
0	145399	1323.084927642716	0.051997200000004
0	145399	1323.084927642716	0.051957200000004
0	145537	1324.464927090551	0.050857200000004
0	145752	1325.804927491245	0.050650600000004
0	145925	1327.404928198352	0.050386600000004
0	146068	1328.964928858319	0.050122600000004
0	146205	1330.364929329724	0.049248200000004
0	146342	1331.764929801129	0.048373800000004
0	146531	1332.84492989541	0.047970400000004
0	146680	1334.564930743939	0.047742400000004
0	146787	1335.664930861791	0.047335000000004
0	147006	1337.144931427477	0.047154200000004
0	147143	1338.764932158154	0.046750800000004
0	147296	1340.124932582419	0.046102800000004
0	147490	1341.20621370027	0.045695400000004
0	147650	1342.924933525229	0.044595400000004
0	147783	1344.284933949493	0.044146400000004
0	147876	1345.404935090915	0.043844600000004
0	148050	1347.164934986584	0.042744600000004
0	148135	1348.204936033725	0.042337200000004
0	148341	1349.764935693692	0.041237200000004
0	148483	1351.024936000105	0.040829800000004
0	148673	1352.504936565791	0.040622200000004
0	148810	1353.864936990056	0.040320400000004
0	148971	1355.324937532171	0.040113800000004
0	149106	1356.904938215708	0.039849800000004
0	149191	1358.00493933356	0.039585800000004
0	149370	1359.444938852105	0.038485800000004
0	149553	1360.84493932351	0.038265600000004
0	149715	1362.464940054188	0.038059000000004
0	149838	1363.864940525593	0.037655600000004
0	149977	1365.344941091279	0.037353800000004
0	150080	1366.464941232701	0.036946400000004
0	150284	1367.884941727676	0.036739800000004
0	150413	1369.264942175511	0.036532200000004
0	150591	1370.624942599775	0.036325600000004
0	150760	1372.284943377593	0.036118000000004
0	150921	1373.504943636866	0.035693000000004
0	151074	1375.124944367544	0.035465000000004
0	151155	1376.204945461825	0.034817000000004
0	151331	1377.744945098222	0.033717000000004
0	151440	1379.064945475346	0.033496800000004
0	151629	1380.544946041032	0.033316000000004
0	151712	1381.804947347445	0.033052000000004
0	151877	1383.284946913131	0.031952000000004
0	151975	1384.604948290255	0.031744400000004
0	152141	1386.344948162354	0.030644400000004
0	152222	1387.404949233065	0.030149800000004
0	152376	1388.82494872804	0.029049800000004
0	152555	1390.524949552999	0.028869000000004
0	152707	1391.60494964728	0.028221000000004
0	152877	1393.124950260106	0.028040200000004
0	153034	1394.464950660801	0.027820000000004
0	153179	1396.144951462189	0.027592000000004
0	153308	1397.524951910024	0.026983000000004
0	153454	1398.644953051445	0.026534000000004
0	153454	1398.644953051445	0.026514000000004
0	153620	1400.224952734982	0.025414000000004
0	153759	1401.524954088536	0.025006600000004
0	153759	1401.524954088536	0.024946600000004
0	153935	1402.80495341852	0.023846600000004
0	154107	1404.244954937065	0.023640000000004
0	154107	1404.244954937065	0.023620000000004
0	154280	1405.704955479181	0.022520000000004
0	154280	1405.704955479181	0.022470000000004
0	154410	1407.044954879875	0.021370000000004
0	154614	1408.504955421991	0.021149800000004
0	154739	1410.084956105528	0.020884000000004
0	154872	1411.504956600503	0.020618200000004
0	155021	1412.764956906917	0.020354200000004
0	155142	1414.02495721333	0.020088400000004
0	155297	1415.464957731876	0.019868200000004
0	155446	1417.124958509694	0.019660600000004
0	155607	1418.324958745396	0.019211600000004
0	155754	1419.804959311082	0.018786600000004
0	155871	1421.164959735347	0.018520800000004
0	156026	1422.42496004176	0.018292800000004
0	156178	1423.864960560306	0.018085200000004
0	156357	1425.22496098457	0.017878600000004
0	156503	1426.884961762388	0.017658400000004
0	156639	1428.084961998091	0.017392600000004
0	156801	1429.624962634487	0.017185000000004
0	156908	1430.884962940901	0.016919200000004
0	157085	1432.264964388736	0.016711600000004
0	157085	1432.264964388736	0.016681600000004
0	157240	1433.744963954422	0.015581600000004
0	157373	1435.324964637959	0.015315800000004
0	157545	1436.464964802951	0.014866800000004
0	157635	1437.804966203645	0.014686000000004
0	157858	1439.24496672219	0.013586000000004
0	157858	1439.24496672219	0.013566000000004
0	157968	1440.664966217166	0.012466000000004
0	158127	1442.344967018554	0.012259400000004
0	158274	1443.604967324967	0.011834400000004
0	158405	1445.144967961364	0.011409400000004
0	158486	1446.204969032075	0.011002000000004
0	158673	1447.60496850348	0.0099020000000036
0	158848	1449.044969022025	0.0097212000000036
0	158994	1450.464969517001	0.0095010000000036
0	159168	1451.884970011976	0.0093202000000036
0	159306	1453.524970766224	0.0091126000000036
0	159439	1454.944971261199	0.0086266000000036
0	159610	1456.064971402621	0.0082232000000036
0	159753	1457.744972204009	0.0080166000000036
0	159900	1459.004972510422	0.0076132000000036
0	159981	1460.204973746125	0.0071186000000036
0	160139	1461.864973523943	0.0060186000000036
0	160329	1463.124973830356	0.0057168000000036
0	160433	1464.464974231051	0.0053134000000036
0	160538	1465.804975631745	0.0051326000000036
0	160710	1467.24497515029	0.0040326000000036
0	160853	1468.924975951679	0.0038124000000036
0	160975	1470.064976116671	0.0033178000000036
0	161135	1471.604976753067	0.0031112000000036
0	161269	1472.924977130191	0.0026166000000036
0	161448	1474.224977483745	0.0023964000000036
0	161595	1475.704978049431	0.0021898000000036
0	161729	1477.064978473696	0.0017408000000036
0	161876	1478.40497887439	0.0015600000000036
0	162023	1480.064979652208	0.0013534000000036
0	162175	1481.2049798172	0.0010516000000036
0	162321	1482.644980335745	0.00084500000000361
0	162466	1484.304981113563	0.00063840000000361
0	162545	1485.404982231415	0.00015240000000361
1	84	0.02448209428	0.5
1	281	1.484482636396	0.4989
1	281	1.484482636396	0.49886
1	412	3.024482272792	0.49776
1	512	4.224483508495	0.4975462
1	726	5.684483050611	0.4964462
1	895	7.124483569156	0.4962508
1	1063	8.524484040561	0.4960834
1	1222	9.984484582677	0.4958696
1	1310	11.22448586552	0.4956382
1	1432	12.624486336925	0.4945382
1	1605	14.364486209024	0.4934382
1	1770	15.584486468297	0.492999
1	1917	16.984486939702	0.4928036
1	2096	18.364487387537	0.4926082
1	2274	19.664487741091	0.4922192
1	2434	21.284488471768	0.4920854
1	2520	22.42448963676	0.4916964
1	2725	23.984489296727	0.4905964
1	2848	25.22449057957	0.4902512
1	2848	25.22449057957	0.4902412
1	3005	26.644491074545	0.4891412
1	3005	26.644491074545	0.4891212
1	3166	28.344490899504	0.4880212
1	3254	29.424491993785	0.4877018
1	3415	31.044491724463	0.4866018
1	3631	32.324492054446	0.4860582
1	3785	33.904492737983	0.4858908
1	3920	35.344493256529	0.4854066
1	4059	36.764493751504	0.4850872
1	4210	38.004494034347	0.4844758
1	4413	39.304494387901	0.4841564
1	4566	40.804494977157	0.483925
1	4719	42.324495589984	0.48368
1	4886	43.524495825686	0.4833104
1	5011	44.82449617924	0.482991
1	5176	46.544497027769	0.4828572
1	5336	47.684497192761	0.4822188
1	5498	49.164497758447	0.4818736
1	5643	50.42449806486	0.48133
1	5824	51.864499583406	0.48121
1	5824	51.864499583406	0.48118
1	6057	53.22449900767	0.48008
1	6242	54.804499691207	0.47996
1	6386	56.104500044761	0.4797286
1	6536	57.744500799009	0.4794972
1	6624	58.82450189329	0.4791778
1	6783	60.424501600397	0.4780778
1	6883	61.6245028361	0.4778464
1	7042	63.024502307505	0.4767464
1	7225	64.584502967472	0.4766264
1	7375	65.964503415307	0.4762812
1	7501	67.424503957422	0.475936
1	7650	68.944504570249	0.4757046
1	7828	70.00578566453	0.475335
1	7980	71.424505135935	0.474235
1	8153	72.82450560734	0.474115
1	8292	74.324506196596	0.4739812
1	8447	75.664506597291	0.4738138
1	8604	77.344507398679	0.47368
1	8771	78.524507610811	0.4733606
1	8944	79.964508129357	0.4731292
1	9030	81.22450943577	0.4728098
1	9213	82.744510048597	0.4717098
1	9213	82.744510048597	0.4716398
1	9361	84.02450937858	0.4705398
1	9511	85.624510085687	0.4704198
1	9710	86.924510439241	0.470206
1	9860	88.264510839936	0.469961
1	10047	89.724511382051	0.4697936
1	10183	91.344512112729	0.4695798
1	10359	92.464512254151	0.4692102
1	10532	93.904512772696	0.4690764
1	10737	95.264513196961	0.468845
1	10893	96.844513880498	0.4686312
1	11030	98.364514493324	0.4682616
1	11172	99.424514564035	0.4673872
1	11312	100.924515153291	0.4672672
1	11503	102.384515695407	0.4670998
1	11642	103.964516378944	0.4668684
1	11777	105.344516826779	0.466257
1	11928	106.584517109622	0.4656186
1	12096	107.824517392465	0.4653872
1	12256	109.544518240994	0.4652672
1	12431	110.664518382416	0.4646288
1	12578	112.344519183804	0.464495
1	12774	113.464519325226	0.463865
1	12916	115.144520126614	0.4636696
1	13045	116.464520503738	0.4633
1	13141	117.6245216923	0.462939
1	13304	119.264521446548	0.461839
1	13437	120.624521870812	0.461594
1	13604	122.004522318647	0.4613802
1	13757	123.264522625061	0.4610608
1	13908	124.944523426449	0.460927
1	14063	126.064523567871	0.4602886
1	14214	127.744524369259	0.4601548
1	14302	128.82452546354	0.4597852
1	14424	130.224525934945	0.4586852
1	14613	131.784525594912	0.4575852
1	14755	133.124525995606	0.45724
1	14907	134.42452634916	0.4570446
1	15078	135.824526820565	0.4569246
1	15231	137.24452831554	0.4567908
1	15231	137.24452831554	0.4567708
1	15428	138.744528904797	0.4556708
1	15428	138.744528904797	0.4556008
1	15556	140.064528281921	0.4545008
1	15706	141.664528989028	0.454367
1	15874	142.80581017759	0.454122
1	16071	144.324529766846	0.453022
1	16266	145.60453009683	0.452777
1	16381	147.024531591805	0.452657
1	16570	148.624531298912	0.451557
1	16707	150.164531935309	0.4511178
1	16830	151.424532241722	0.4506786
1	16995	152.804532689557	0.4504472
1	17120	154.02453294883	0.4502158
1	17277	155.664533703078	0.4500958
1	17390	156.82453389164	0.4498508
1	17573	158.384534551607	0.4497308
1	17738	159.724534952301	0.4494858
1	17832	161.024536305855	0.4493184
1	17954	162.42453677726	0.4482184
1	18143	164.104536578648	0.4471184
1	18325	165.22453672007	0.4466342
1	18491	166.624537191475	0.4465142
1	18668	168.204537875012	0.4459706
1	18847	169.464539181426	0.4457256
1	18847	169.464539181426	0.4456956
1	18982	171.064538888533	0.4445956
1	19119	172.464539359938	0.4443506
1	19259	173.664539595641	0.4439896
1	19417	175.344540397029	0.4438558
1	19556	176.764540892004	0.4434862
1	19707	177.964542127707	0.443002
1	19707	177.964542127707	0.442922
1	19860	179.264541481261	0.441822
1	20028	180.664541952666	0.4416882
1	20216	182.144542518352	0.4415544
1	20366	183.564543013327	0.441323
1	20518	184.984543508302	0.4407794
1	20681	186.284543861856	0.4405344
1	20826	187.944544639674	0.440367
1	20998	189.044544757525	0.4400476
1	21136	190.624545441062	0.4399138
1	21285	192.144546053889	0.4397
1	21410	193.424546383872	0.4390616
1	21578	194.604546596005	0.4388302
1	21762	196.204547303112	0.4387102
1	21848	197.424548562385	0.438365
1	22034	198.964548198782	0.437265
1	22188	200.404548717327	0.4366536
1	22293	201.6245489766	0.4362926
1	22468	203.024549448005	0.4361726
1	22582	204.42455091941	0.4360526
1	22760	205.924550508666	0.4349526
1	22894	207.22455086222	0.4347852
1	23075	208.764551498617	0.4346652
1	23226	210.164551970022	0.4341216
1	23316	211.424553276435	0.4339078
1	23479	213.064553030683	0.4328078
1	23657	214.344553360667	0.4324626
1	23795	215.964554091344	0.432093
1	23938	217.024555162055	0.4316538
1	23938	217.024555162055	0.4316438
1	24115	218.604554845592	0.4305438
1	24266	219.844556128435	0.4303124
1	24266	219.844556128435	0.4302924
1	24413	221.464555859113	0.4291924
1	24590	222.784556236237	0.4288472
1	24755	224.104556613361	0.4286158
1	24926	225.584557179047	0.4282964
1	25081	226.984557650452	0.4280826
1	25220	228.564558333989	0.4278512
1	25373	229.904558734683	0.4269768
1	25558	231.144559017527	0.4264926
1	25701	232.42455934751	0.4261732
1	25862	234.144560196039	0.4256296
1	25990	235.24456031389	0.4253102
1	26103	236.624561761725	0.4249492
1	26308	238.184561421692	0.4238492
1	26507	239.504561798816	0.4235298
1	26670	240.884562246651	0.4233624
1	26831	242.464562930188	0.4231486
1	26970	243.984564543014	0.4225102
1	26970	243.984564543014	0.4223202
1	27119	245.224563825857	0.4212202
1	27274	246.644564320833	0.4209008
1	27401	248.064564815808	0.4205312
1	27538	249.24456602794	0.420186
1	27538	249.24456602794	0.420166
1	27687	250.824565711477	0.419066
1	27836	252.084566017891	0.4188346
1	28000	253.544566560007	0.4184894
1	28093	254.82456788999	0.418294
1	28279	256.264567408536	0.417194
1	28425	257.864568115643	0.4170602
1	28586	259.204568516337	0.4166992
1	28739	260.564568940602	0.4163798
1	28894	262.004569459147	0.4158362
1	29037	263.22456971842	0.415352
1	29204	264.624570189825	0.415232
1	29355	266.02457066123	0.415112
1	29538	267.584571321197	0.414992
1	29681	268.924571721891	0.414603
1	29810	270.384572264007	0.4143716
1	29935	271.664572593991	0.4141762
1	30120	273.244574277528	0.4140424
1	30120	273.244574277528	0.4139224
1	30253	274.744573866784	0.4128224
1	30408	276.004574173197	0.4124528
1	30561	277.404574644602	0.4121076
1	30683	278.605855903875	0.4117882
1	30882	280.104575469561	0.4106882
1	31042	281.464575893826	0.4104928
1	31187	282.864576365231	0.410359
1	31322	284.324576907346	0.4102252
1	31515	285.804577473032	0.4100578
1	31666	287.164578897297	0.4098128
1	31666	287.164578897297	0.4097328
1	31754	288.42457920371	0.4086328
1	31876	289.824579675115	0.4075328
1	32015	291.22457914652	0.4064328
1	32218	292.804579830057	0.4063128
1	32345	294.264580372173	0.4059432
1	32508	295.644580820008	0.4055822
1	32645	297.164581432834	0.4052126
1	32768	298.224582503545	0.4046012
1	32768	298.224582503545	0.4045912
1	32901	299.62458197495	0.4034912
1	33057	301.005863446355	0.4033712
1	33229	302.764583318454	0.4022712
1	33382	304.104583719148	0.4013968
1	33489	305.264583907711	0.4009126
1	33661	306.724584449826	0.4007788
1	33829	308.344585180504	0.4006114
1	33980	309.564585439777	0.4001722
1	34117	311.144586123314	0.3998528
1	34238	312.384586406157	0.3995334
1	34383	313.864586971843	0.399338
1	34479	315.024588160405	0.398977
1	34664	316.44458765538	0.397877
1	34819	318.144588480339	0.3977432
1	34956	319.544588951744	0.3971132
1	35105	320.824589281727	0.3967938
1	35246	322.344589894554	0.39658
1	35371	323.424589988835	0.3959416
1	35524	324.82459046024	0.3958216
1	35640	326.224591931645	0.3957016
1	35799	327.824591638752	0.3946016
1	35940	329.264592157298	0.3943878
1	36036	330.42459334586	0.3940426
1	36225	332.124593170819	0.3929426
1	36414	333.324593406521	0.392573
1	36567	334.664593807216	0.3923592
1	36737	336.064594278621	0.3921918
1	36875	337.424594702885	0.392058
1	37040	339.144595551414	0.391938
1	37211	340.364595810687	0.391549
1	37364	341.904596447083	0.3911794
1	37577	343.005877588505	0.3907402
1	37711	344.464597107051	0.3896402
1	37860	345.984597719877	0.3895064
1	37964	347.22459900272	0.389311
1	38135	348.944598851249	0.388211
1	38272	350.344599322654	0.387581
1	38360	351.424600416935	0.387192
1	38482	352.82460088834	0.386092
1	38648	354.264600406886	0.384992
1	38827	355.684600901861	0.384631
1	38953	357.124601420406	0.3844636
1	39112	358.744602151084	0.3842962
1	39253	360.184603669629	0.3839266
1	39253	360.184603669629	0.3837366
1	39390	361.584604141034	0.3826366
1	39390	361.584604141034	0.3824466
1	39550	362.624603188175	0.3813466
1	39724	364.064603706721	0.3812266
1	39872	365.464604178126	0.3810928
1	40103	366.964604767382	0.3807476
1	40230	368.464605356638	0.3804282
1	40375	369.944605922324	0.3800672
1	40463	371.024607016605	0.3794288
1	40646	372.584606676572	0.3783288
1	40829	373.864608006556	0.3781334
1	40829	373.864608006556	0.3781034
1	40972	375.544607807944	0.3770034
1	41060	376.624608902225	0.376684
1	41231	378.344608750754	0.375584
1	41336	379.424608845035	0.3752646
1	41456	380.82461031644	0.3751446
1	41676	382.324609905696	0.3740446
1	41767	383.62461125925	0.3738308
1	41940	385.364611131349	0.3727308
1	42093	386.684611508473	0.3718564
1	42261	387.924611791316	0.3714674
1	42348	389.22461314487	0.3712224
1	42470	390.624613616275	0.3701224
1	42637	392.064613134821	0.3690224
1	42809	393.564613724077	0.3688886
1	42947	395.144614407614	0.3685276
1	43118	396.364614666887	0.3678892
1	43245	397.864615256143	0.3675698
1	43443	399.124615562556	0.3673248
1	43599	400.644617175383	0.3670934
1	43599	400.644617175383	0.3669734
1	43700	401.824616387515	0.3658734
1	43885	403.464617141763	0.3657534
1	44034	404.644617353895	0.365434
1	44191	406.344618178854	0.3652666
1	44279	407.424619273135	0.364897
1	44466	409.024618980242	0.363797
1	44617	410.244620239515	0.3634776
1	44617	410.244620239515	0.3634576
1	44821	411.62462068735	0.3623576
1	44821	411.62462068735	0.3623476
1	44964	413.005901158755	0.3612476
1	45142	414.42462063016	0.3601476
1	45319	415.964621266557	0.3600276
1	45500	417.284621643681	0.359484
1	45671	418.704622138656	0.3592526
1	45873	420.064622562921	0.3590852
1	46031	421.604623199317	0.3588714
1	46160	423.064623741433	0.35864
1	46256	424.224624929995	0.358279
1	46455	425.6246244014	0.357179
1	46614	427.364625273499	0.357059
1	46767	428.464625391351	0.3566198
1	46932	429.984626004177	0.3564524
1	47063	431.464626569863	0.3562386
1	47226	432.784626946987	0.3558934
1	47363	434.364627630524	0.3555238
1	47486	435.424627701235	0.3550396
1	47669	436.984628361202	0.3549196
1	47804	438.544629021169	0.3545744
1	47955	439.784629304012	0.354255
1	48084	441.244629846128	0.3540596
1	48265	442.584630246822	0.353516
1	48351	443.824631529665	0.353127
1	48529	445.324631118921	0.352027
1	48704	446.624631472475	0.3518596
1	48868	448.104632038161	0.3517396
1	49040	449.405913415285	0.3515442
1	49202	450.864632933831	0.3504442
1	49343	452.384633546657	0.3503104
1	49542	453.724633947351	0.350115
1	49699	455.004634277335	0.3499012
1	49862	456.464634819451	0.3497812
1	50011	457.844635267285	0.3496474
1	50164	459.464635997963	0.3495136
1	50347	460.884636492938	0.3491684
1	50516	462.164636822922	0.3486842
1	50665	463.584637317897	0.348339
1	50830	464.82463760074	0.3481252
1	50997	466.424638307847	0.3480052
1	51149	467.62463854355	0.3477914
1	51262	469.024640014955	0.3476714
1	51466	470.544639627782	0.3465714
1	51606	472.184641382029	0.3462018
1	51606	472.184641382029	0.3460118
1	51773	473.324640547021	0.3449118
1	51934	474.684641971286	0.3446668
1	51934	474.684641971286	0.3446268
1	52095	476.224641607682	0.3435268
1	52214	477.584642031947	0.3429154
1	52401	478.984642503352	0.34272
1	52538	480.564643186889	0.3424006
1	52673	481.944643634724	0.3419614
1	52817	483.124643846856	0.341323
1	52971	484.584644388972	0.3411276
1	53140	485.884645742526	0.3409322
1	53140	485.884645742526	0.3408922
1	53303	487.424645378922	0.3397922
1	53389	488.624646614625	0.3394728
1	53532	490.064646133171	0.3383728
1	53701	491.784647981699	0.338239
1	53701	491.784647981699	0.338049
1	53836	493.164647429534	0.336949
1	53922	494.224648500245	0.3363376
1	54111	495.824648207352	0.3352376
1	54288	497.064649490196	0.3348766
1	54288	497.064649490196	0.3348466
1	54485	498.524649032311	0.3337466
1	54571	499.824650385865	0.3335152
1	54737	501.264649904411	0.3324152
1	54883	502.624650328675	0.3322814
1	55095	504.02465080008	0.3321614
1	55245	505.444651295055	0.3320414
1	55429	506.904651837171	0.3319076
1	55577	508.564652614989	0.3317122
1	55726	509.784652874262	0.331228
1	55870	511.005934157105	0.3310142
1	56043	512.40593462851	0.3299142
1	56183	513.864654147056	0.3288142
1	56356	515.324654689171	0.3286804
1	56509	516.624655042725	0.3284666
1	56666	518.064655561271	0.3283466
1	56850	519.424655985535	0.3282128
1	57044	520.984656645502	0.3280928
1	57165	522.384657116907	0.3278478
1	57269	523.62465839975	0.3276524
1	57442	525.364658271849	0.3265524
1	57595	526.584658531122	0.325941
1	57758	527.824659813965	0.3255958
1	57758	527.824659813965	0.3255858
1	57957	529.284659356081	0.3244858
1	58087	530.624659756775	0.3243184
1	58245	532.264660511023	0.3241984
1	58341	533.424661699585	0.3239534
1	58490	534.924661288841	0.3228534
1	58703	536.244661665965	0.322686
1	58801	537.6246631138	0.3225186
1	58962	539.244662844478	0.3214186
1	59135	540.42466305661	0.320875
1	59296	542.164663928709	0.320755
1	59447	543.484664305833	0.3201436
1	59535	544.624665470825	0.3197546
1	59710	546.384666366494	0.3186546
1	59710	546.384666366494	0.3184646
1	59861	547.684665720048	0.3173646
1	60025	548.924666002891	0.3169254
1	60116	550.224667356445	0.316694
1	60289	551.964667228544	0.315594
1	60467	553.064668346396	0.3151098
1	60467	553.064668346396	0.3150798
1	60685	554.44466879423	0.3139798
1	60685	554.44466879423	0.3139598
1	60814	556.024668477767	0.3128598
1	60979	557.364669878462	0.312646
1	60979	557.364669878462	0.312566
1	61067	558.624670184875	0.311466
1	61189	560.02467065628	0.310366
1	61403	561.464671174826	0.309266
1	61403	561.464671174826	0.309236
1	61537	563.064670881933	0.308136
1	61674	564.244672094065	0.3077908
1	61674	564.244672094065	0.3077708
1	61831	565.664671589041	0.3066708
1	62016	567.164672178297	0.306537
1	62153	568.464673531851	0.3063056
1	62153	568.464673531851	0.3062756
1	62321	569.944673097537	0.3051756
1	62451	571.424673663222	0.3049802
1	62600	572.944674276049	0.3047664
1	62715	574.124674488181	0.3043968
1	62920	575.484674912446	0.3042294
1	63079	577.124675666694	0.3040156
1	63167	578.224676784545	0.3036962
1	63338	579.944676633074	0.3025962
1	63426	581.024677727355	0.3019578
1	63599	582.764677599454	0.3008578
1	63685	583.824678670165	0.2999834
1	63872	585.364678306562	0.2988834
1	64019	586.784678801537	0.2985382
1	64162	588.344679461504	0.2983244
1	64301	589.764679956479	0.2976944
1	64424	590.82468002719	0.297083
1	64581	592.464680781438	0.296963
1	64779	593.724681087851	0.296602
1	64866	595.024682441405	0.296357
1	65075	596.584682101372	0.295257
1	65226	598.084682690628	0.294868
1	65411	599.22468285562	0.2944984
1	65536	600.664683374166	0.2943784
1	65652	602.02468479843	0.2942446
1	65851	603.524684387686	0.2931446
1	65960	604.82468474124	0.2929772
1	66131	606.564685613339	0.2928572
1	66300	607.824685919752	0.292418
1	66479	609.084687226166	0.2920484
1	66479	609.084687226166	0.2920084
1	66648	610.484686697571	0.2909084
1	66798	611.805968098265	0.2905632
1	66974	613.22468856967	0.2894632
1	66974	613.22468856967	0.2894532
1	67189	614.744688182497	0.2883532
1	67332	616.02468851248	0.2880338
1	67526	617.524689101736	0.2879138
1	67662	619.144689832414	0.2877184
1	67795	620.264689973836	0.2870884
1	67964	621.844690657373	0.2869546
1	68060	623.024691869505	0.2867096
1	68238	624.42469134091	0.2856096
1	68351	625.824692812315	0.2854896
1	68540	627.404692495852	0.2843896
1	68679	628.704693849406	0.28402
1	68679	628.704693849406	0.28397
1	68828	630.344693603654	0.28287
1	68955	631.644693957208	0.2825506
1	69104	633.164694570034	0.282007
1	69207	634.224694640745	0.2811326
1	69371	635.664695159291	0.2810126
1	69531	637.364695984249	0.2808452
1	69658	638.664696337803	0.280406
1	69805	640.164696927059	0.2800608
1	69974	641.364697162762	0.2796216
1	70127	642.784697657737	0.279252
1	70313	644.104698034861	0.278891
1	70457	645.424698411985	0.27853
1	70632	646.964699048382	0.27841
1	70793	648.444700614068	0.2781962
1	70793	648.444700614068	0.2780762
1	70918	649.864700109043	0.2769762
1	71077	651.164700462597	0.2767312
1	71257	652.40598176901	0.2765174
1	71453	653.924701358266	0.2754174
1	71541	655.22470271182	0.275222
1	71730	656.784702371787	0.274122
1	71899	658.204702866762	0.2737768
1	72042	659.424703126035	0.2735318
1	72158	660.82470459744	0.2734118
1	72297	662.224704068845	0.2723118
1	72505	663.60470451668	0.2721918
1	72795	665.024705011655	0.2720718
1	72951	666.764705883754	0.2719518
1	73037	667.824706954465	0.2715126
1	73215	669.324706543721	0.2704126
1	73380	670.664706944416	0.2702452
1	73553	672.00598836868	0.2701114
1	73737	673.584708028647	0.2690114
1	73872	675.144708688614	0.2686504
1	73960	676.224709782895	0.2682808
1	74147	677.764709419292	0.2671808
1	74314	679.184709914267	0.2666372
1	74461	680.584710385672	0.2664418
1	74624	682.004710880647	0.2662464
1	74710	683.22471213992	0.2658574
1	74913	684.724711729176	0.2647574
1	75052	686.364712483424	0.264562
1	75189	687.764712954829	0.2636876
1	75359	688.84471404911	0.2632034
1	75359	688.84471404911	0.2631834
1	75497	690.424713732647	0.2620834
1	75664	691.664714015491	0.261852
1	75766	693.024715439755	0.2616846
1	75991	694.544715052582	0.2605846
1	76121	695.864715429706	0.2603708
1	76294	697.364716018962	0.2600256
1	76423	698.644716348945	0.2596804
1	76617	700.204717008912	0.2593194
1	76742	701.424717268185	0.259088
1	76925	703.104718069573	0.258968
1	77052	704.464718493838	0.2584838
1	77148	705.6247196824	0.2581228
1	77270	707.024720153805	0.2570228
1	77441	708.744720002334	0.2559228
1	77529	709.824721096615	0.2556034
1	77729	711.304720662301	0.2545034
1	77877	712.624721039425	0.254336
1	78033	714.064721557971	0.254216
1	78216	715.484722052946	0.2540486
1	78394	716.984722642202	0.2537292
1	78536	718.324723042896	0.2533402
1	78700	719.824723632152	0.2531088
1	78853	721.064723914996	0.2527894
1	79004	722.744724716384	0.252622
1	79141	724.144725187789	0.252233
1	79266	725.22472528207	0.251844
1	79445	726.764725918467	0.251724
1	79584	728.344726602004	0.2515102
1	79746	729.504726790566	0.2511908
1	79923	730.82472716769	0.2509594
1	80085	732.564728039789	0.2508394
1	80208	733.824728346202	0.249965
1	80308	735.024729581905	0.2497512
1	80430	736.42473005331	0.2486512
1	80552	737.824730524715	0.2475512
1	80747	739.284730066831	0.2464512
1	80843	740.624731467525	0.246106
1	81004	742.244731198203	0.245006
1	81177	743.484731481046	0.2444624
1	81353	744.84473190531	0.2442486
1	81532	746.324732470996	0.2438876
1	81674	747.944733201674	0.2437202
1	81811	749.344733673079	0.2430902
1	81943	750.464733814501	0.2427708
1	82116	751.964734403757	0.2426034
1	82283	753.324734828021	0.242408
1	82439	754.864735464418	0.2422406
1	82527	756.02473665298	0.2419212
1	82705	757.524736242236	0.2408212
1	82889	759.084736902203	0.2406538
1	83084	760.206018067195	0.2401696
1	83281	761.724737656451	0.2390696
1	83405	763.224738245707	0.2388246
1	83572	764.684738787823	0.2385932
1	83715	765.924739070666	0.2382042
1	83866	767.22473942422	0.2379904
1	84040	768.744740037047	0.2378704
1	84197	770.164740532022	0.237675
1	84327	771.664741121278	0.2374796
1	84474	773.164741710534	0.2372346
1	84663	774.244741804815	0.2366232
1	84761	775.62474325265	0.2364894
1	84919	777.006023724055	0.2353894
1	85133	778.484743266171	0.2342894
1	85288	779.984743855427	0.234122
1	85455	781.324744256121	0.233877
1	85591	782.664744656816	0.2337096
1	85749	784.344745458204	0.2335758
1	85874	785.424745552485	0.2329374
1	86022	786.80474600032	0.2328174
1	86182	788.444746754568	0.2326974
1	86301	789.664747013841	0.2321538
1	86484	791.204747650237	0.23202
1	86659	792.464747956651	0.231775
1	86799	793.864748428056	0.2316412
1	87012	795.24474987589	0.2312802
1	87012	795.24474987589	0.2312602
1	87166	796.724750441576	0.2301602
1	87166	796.724750441576	0.2301002
1	87353	798.064749842271	0.2290002
1	87513	799.464750313676	0.2288328
1	87673	801.184752162204	0.2286654
1	87673	801.184752162204	0.2284754
1	87838	802.384751397907	0.2273754
1	87995	803.924752034304	0.227144
1	88138	805.124752270006	0.2268246
1	88288	806.504752717841	0.2266572
1	88476	807.984753283527	0.2264258
1	88629	809.524753919924	0.2260648
1	88732	810.624754037775	0.2256952
1	88852	812.02475550918	0.2255752
1	89076	813.524755098436	0.2244752
1	89244	815.024755687692	0.2242302
1	89332	816.224756923395	0.2239108
1	89503	817.684757465511	0.2228108
1	89503	817.684757465511	0.2227708
1	89691	819.044757889775	0.2216708
1	89691	819.044757889775	0.2216508
1	89883	820.464758384751	0.2205508
1	89883	820.464758384751	0.2205208
1	90033	821.924757926866	0.2194208
1	90179	823.544758657544	0.2192534
1	90330	824.784758940387	0.2188838
1	90481	826.184759411792	0.21867
1	90618	827.464760741776	0.2184746
1	90618	827.464760741776	0.2184446
1	90726	828.82476116604	0.2173446
1	90875	830.324760755296	0.2162446
1	91082	831.62476210885	0.2160772
1	91082	831.62476210885	0.2160672
1	91186	833.024762580255	0.2149672
1	91344	834.42476205166	0.2138672
1	91494	835.984762711627	0.2137472
1	91721	837.24476401804	0.2135518
1	91721	837.24476401804	0.2135318
1	91880	838.844763725148	0.2124318
1	91968	840.02476493728	0.2120622
1	92090	841.424765408685	0.2109622
1	92212	842.82476588009	0.2098622
1	92416	844.324765469346	0.2087622
1	92578	845.684766893611	0.2085172
1	92578	845.684766893611	0.2084772
1	92759	847.304766624288	0.2073772
1	92881	848.42476676571	0.2070076
1	93059	849.964767402107	0.2068876
1	93233	851.24476773209	0.2066738
1	93403	852.784768368487	0.2065064
1	93555	854.064768698471	0.2061174
1	93713	855.764769523429	0.2059836
1	93836	856.82476959414	0.2053722
1	94035	858.324770183396	0.2052522
1	94138	859.62477053695	0.2050848
1	94258	861.024772008355	0.2049648
1	94401	862.464771526901	0.2038648
1	94619	863.924772069016	0.203731
1	94751	865.264772469711	0.203486
1	94926	866.664772941116	0.2033522
1	95115	868.224773601082	0.2031848
1	95238	869.624774072487	0.2027456
1	95338	870.82477530819	0.2025318
1	95524	872.364774944587	0.2014318
1	95676	873.784775439562	0.2012364
1	95825	875.144775863827	0.2010226
1	95968	876.744776570934	0.2008272
1	96056	877.824777665215	0.2005078
1	96178	879.22477813662	0.1994078
1	96341	880.644778631595	0.1983078
1	96341	880.644778631595	0.1982878
1	96513	882.144778220852	0.1971878
1	96657	883.764778951529	0.1965578
1	96743	884.82478002224	0.1959464
1	96950	886.364779658637	0.1948464
1	97107	887.924780318604	0.194651
1	97234	889.244780695728	0.1943316
1	97428	890.504781002141	0.193788
1	97517	891.824782379265	0.193543
1	97700	893.344782992092	0.192443
1	97700	893.344782992092	0.192373
1	97870	894.624782322075	0.191273
1	98022	896.264783076323	0.191153
1	98167	897.744783642009	0.190908
1	98320	899.004783948422	0.1905886
1	98459	900.564784608389	0.1903436
1	98566	901.664784726241	0.1899044
1	98682	903.024786150505	0.1897706
1	98890	904.464785669051	0.1886706
1	99026	906.024786329017	0.1885032
1	99126	907.22478756472	0.1882718
1	99344	908.704787130406	0.1871718
1	99433	910.02478850753	0.1869764
1	99624	911.464788026076	0.1858764
1	99769	912.864788497481	0.1857426
1	99928	914.564789322439	0.1856088
1	100055	915.864789675993	0.1847344
1	100172	917.064789911696	0.1843892
1	100309	918.464790383101	0.1842554
1	100492	920.004791019497	0.1841216
1	100645	921.404791490902	0.183752
1	100795	922.764791915167	0.1834326
1	100963	924.124792339431	0.1832372
1	101125	925.406073692985	0.1830698
1	101309	927.104793494373	0.1819698
1	101440	928.264793682936	0.1814856
1	101605	929.6247941072	0.1813518
1	101761	931.064794625746	0.1812318
1	101919	932.744795427134	0.181098
1	102068	933.844795544985	0.1807284
1	102293	935.22479699282	0.180561
1	102293	935.22479699282	0.180551
1	102502	936.724796582076	0.179451
1	102666	938.02479793563	0.179206
1	102666	938.02479793563	0.179196
1	102873	939.564797572027	0.178096
1	102959	940.82479887844	0.1777264
1	103081	942.224799349845	0.1766264
1	103254	943.964799221944	0.1755264
1	103377	945.224799528357	0.174652
1	103568	946.464799811201	0.1744206
1	103699	947.824800235465	0.1742868
1	103898	949.344800848292	0.1741668
1	104045	950.844801437548	0.1739714
1	104208	952.064801696821	0.1737264
1	104359	953.744802498209	0.1733812
1	104500	955.184804016754	0.1730116
1	104500	955.184804016754	0.1728216
1	104621	956.424803299597	0.1717216
1	104786	957.884803841713	0.1714902
1	104928	959.006085006705	0.1711708
1	105086	960.644804737383	0.1700708
1	105221	961.824804949515	0.1695272
1	105433	963.304805515201	0.1694072
1	105609	964.804806104457	0.1692118
1	105763	966.064806410871	0.1687726
1	105931	967.584807023697	0.1686388
1	106104	968.984807495102	0.1682498
1	106241	970.324807895796	0.1679304
1	106406	971.784808437912	0.167763
1	106496	973.024809720755	0.1675492
1	106685	974.464809239301	0.1664492
1	106860	975.904809757846	0.1662818
1	107019	977.24481115854	0.1660864
1	107019	977.24481115854	0.1660664
1	107176	978.964811007069	0.1649664
1	107329	980.224811313482	0.1645272
1	107475	981.544811690607	0.164088
1	107622	982.80609302059	0.1638926
1	107802	984.344813633417	0.1627926
1	107802	984.344813633417	0.1627226
1	107949	985.724813081251	0.1616226
1	108068	987.064813481946	0.1614272
1	108184	988.42481490621	0.1612934
1	108374	989.864814424756	0.1601934
1	108512	991.424815084722	0.1600596
1	108666	992.606096320425	0.1598282
1	108826	994.264816074673	0.1587282
1	108959	995.424816263235	0.1584832
1	109128	997.184818158904	0.1583632
1	109128	997.184818158904	0.1581732
1	109279	998.384817394607	0.1570732
1	109418	999.984819101714	0.1566842
1	109418	999.984819101714	0.1564942
1	109567	1001.204818360987	0.1553942
1	109724	1002.40481859669	0.1551628
1	109876	1003.824819091665	0.1550428
1	110034	1005.464819845913	0.1549228
1	110157	1006.724820152326	0.1545776
1	110320	1008.384821930144	0.1544102
1	110320	1008.384821930144	0.1542202
1	110440	1009.424820977285	0.1531202
1	110578	1010.864821495831	0.1530002
1	110758	1012.364822085087	0.1528664
1	110912	1013.884822697913	0.1525054
1	111079	1015.164823027897	0.152186
1	111267	1016.504823428591	0.1519722
1	111421	1018.004824017847	0.1518048
1	111548	1019.464824559963	0.1513206
1	111685	1020.864825031368	0.1509754
1	111781	1022.02482621993	0.1507304
1	111903	1023.424826691335	0.1496304
1	112104	1024.964826327732	0.1485304
1	112235	1026.464826916988	0.1483166
1	112414	1027.744827246972	0.1480716
1	112567	1029.304827906938	0.1478578
1	112744	1030.464828095501	0.1474186
1	112898	1031.944828661187	0.1472232
1	113044	1033.584830415434	0.1470278
1	113044	1033.584830415434	0.1468378
1	113212	1034.644829486145	0.1457378
1	113350	1036.224830169682	0.145604
1	113506	1037.524830523236	0.1453726
1	113670	1038.864830923931	0.1452052
1	113817	1040.264831395336	0.1450714
1	113977	1041.704831913881	0.1449376
1	114078	1043.024833291005	0.1447702
1	114244	1044.464832809551	0.1436702
1	114407	1045.806114233815	0.1433092
1	114575	1047.544834082344	0.1422092
1	114753	1048.664834223766	0.1418396
1	114931	1050.124834765881	0.1416722
1	115058	1051.664835402278	0.1415048
1	115233	1052.944835732262	0.1411596
1	115398	1054.224836062245	0.1409642
1	115563	1055.724836651501	0.1408442
1	115718	1057.024837005055	0.1406768
1	115867	1058.42483747646	0.1405568
1	116050	1060.004838159997	0.1404368
1	116203	1061.264838466411	0.1399526
1	116368	1062.784839079237	0.1396074
1	116550	1064.064839409221	0.1393624
1	116703	1065.544839974907	0.1392286
1	116859	1066.984840493452	0.1389836
1	116994	1068.264840823436	0.1387698
1	117147	1069.664841294841	0.138636
1	117320	1071.224841954807	0.1385022
1	117459	1072.764842591204	0.1381828
1	117612	1073.864842709056	0.1377436
1	117804	1075.20612413332	0.1375762
1	117946	1076.724843722576	0.1364762
1	118121	1078.164844241122	0.1363088
1	118293	1079.444845571105	0.1359636
1	118293	1079.444845571105	0.1359436
1	118501	1080.84484604251	0.1348436
1	118501	1080.84484604251	0.1348236
1	118696	1082.284845561056	0.1337236
1	118850	1083.664846008891	0.1335282
1	119035	1085.124846551006	0.1333944
1	119181	1086.604847116692	0.133199
1	119275	1087.824848375965	0.1329676
1	119434	1089.22484784737	0.1318676
1	119599	1090.944848695899	0.1317476
1	119728	1092.264849073023	0.131378
1	119824	1093.424850261585	0.1310328
1	119946	1094.82485073299	0.1299328
1	120140	1096.206131204395	0.1288328
1	120324	1097.784850864362	0.1277328
1	120501	1099.064851194346	0.1274134
1	120682	1100.564851783602	0.1272796
1	120832	1101.864852137156	0.1269602
1	120998	1103.364852726412	0.1268264
1	121166	1104.624853032825	0.126595
1	121343	1106.064853551371	0.126475
1	121500	1107.524854093486	0.1263412
1	121648	1109.164854847734	0.1261738
1	121799	1110.364855083437	0.1257346
1	121928	1111.864855672693	0.1254152
1	122104	1113.104856955536	0.1251702
1	122104	1113.104856955536	0.1251202
1	122258	1114.604856544792	0.1240202
1	122387	1116.064857086908	0.123675
1	122591	1117.20613827547	0.123314
1	122753	1118.944858123999	0.122214
1	122907	1120.064858265421	0.1215756
1	123088	1121.424858689685	0.1214082
1	123199	1122.82486016109	0.1212882
1	123358	1124.424859868197	0.1201882
1	123525	1125.784860292462	0.1199568
1	123690	1127.164860740297	0.1196116
1	123816	1128.42486104671	0.1193978
1	124000	1130.024861753817	0.1192778
1	124127	1131.464862272363	0.1190328
1	124288	1132.804862673057	0.1186718
1	124417	1134.0448639559	0.1184404
1	124417	1134.0448639559	0.1184204
1	124568	1135.644863663008	0.1173204
1	124743	1136.82486387514	0.1167768
1	124918	1138.384864535107	0.1166568
1	125045	1139.824865053652	0.116443
1	125212	1141.304865619338	0.1162292
1	125365	1142.624865996462	0.11579
1	125502	1144.164866632859	0.1154706
1	125644	1145.22486670357	0.1150314
1	125794	1146.624867174975	0.1149114
1	125977	1148.284867952793	0.1143678
1	126128	1149.604868329917	0.1139788
1	126281	1151.004868801322	0.1137338
1	126459	1152.264869107736	0.1135024
1	126558	1153.624870532	0.113307
1	126725	1155.064871050546	0.112207
1	126725	1155.064871050546	0.112177
1	126900	1156.464870521951	0.111077
1	127046	1157.864870993356	0.1109432
1	127250	1159.22487141762	0.1107758
1	127405	1160.944872266149	0.1106558
1	127542	1162.344872737554	0.1100174
1	127687	1163.424873831835	0.109698
1	127687	1163.424873831835	0.109688
1	127882	1165.004873515372	0.108588
1	128017	1166.544874151769	0.1082184
1	128198	1167.684874316761	0.1075884
1	128346	1169.124874835306	0.1072188
1	128484	1170.664875471703	0.1070514
1	128663	1171.924875778116	0.1068064
1	128798	1173.284876202381	0.106639
1	128938	1174.624876603075	0.1062938
1	129119	1176.164877239472	0.1061738
1	129271	1177.584877734447	0.1058286
1	129412	1179.164878417984	0.1056148
1	129583	1180.324879606546	0.1047404
1	129583	1180.324879606546	0.1046804
1	129711	1181.664879007241	0.1035804
1	129871	1183.364879832199	0.1032194
1	129957	1184.42488090291	0.1027352
1	130079	1185.824881374315	0.1016352
1	130242	1187.464881128563	0.1005352
1	130435	1188.764881482117	0.1001742
1	130613	1190.00616278853	0.099960400000001
1	130767	1191.644882519208	0.098860400000001
1	130906	1193.064883014183	0.098316800000001
1	131051	1194.544883579869	0.097955800000001
1	131183	1195.664883721291	0.097325800000001
1	131292	1197.024885145555	0.097192000000001
1	131414	1198.42488561696	0.096092000000001
1	131581	1199.864886135506	0.094992000000001
1	131581	1199.864886135506	0.094962000000001
1	131726	1201.424885795472	0.093862000000001
1	131889	1202.764886196167	0.093648200000001
1	132036	1204.124887620431	0.093434400000001
1	132036	1204.124887620431	0.093374400000001
1	132169	1205.624887209687	0.092274400000001
1	132359	1206.80616844539	0.092043000000001
1	132474	1208.224888916795	0.090943000000001
1	132672	1209.724888506051	0.089843000000001
1	132833	1211.064888906746	0.089675600000001
1	133000	1212.464889378151	0.089541800000001
1	133103	1213.824890802415	0.089374400000001
1	133292	1215.424890509522	0.088274400000001
1	133434	1216.724890863076	0.087835200000001
1	133620	1218.064891263771	0.087667800000001
1	133803	1219.604891900167	0.087534000000001
1	133956	1220.984892348002	0.087164400000001
1	134059	1222.224892630845	0.086794800000001
1	134236	1223.724894220101	0.086674800000001
1	134236	1223.724894220101	0.086614800000001
1	134392	1225.144893715077	0.085514800000001
1	134553	1226.40489402149	0.085269800000001
1	134737	1228.004894728597	0.085149800000001
1	134929	1229.24489601144	0.084760800000001
1	134929	1229.24489601144	0.084740800000001
1	135065	1230.624895459275	0.083640800000001
1	135261	1232.144896072102	0.083097200000001
1	135406	1233.524896519936	0.082901800000001
1	135559	1234.82489687349	0.082734400000001
1	135705	1236.384897533457	0.082614400000001
1	135882	1237.684897887011	0.082419000000001
1	136045	1239.224898523407	0.082251600000001
1	136208	1240.42489975911	0.082006600000001
1	136208	1240.42489975911	0.081996600000001
1	136357	1242.064899513358	0.080896600000001
1	136502	1243.544900079044	0.080651600000001
1	136666	1244.724900291176	0.080332200000001
1	136843	1246.124901762581	0.080136800000001
1	136843	1246.124901762581	0.080076800000001
1	136991	1247.564901281127	0.078976800000001
1	137158	1248.82490258754	0.078763000000001
1	137158	1248.82490258754	0.078753000000001
1	137266	1250.224903058945	0.077653000000001
1	137444	1251.724902648201	0.076553000000001
1	137592	1253.364903402449	0.076385600000001
1	137719	1254.664903756003	0.075901400000001
1	137892	1255.904904038846	0.075656400000001
1	138047	1257.24490543954	0.075425000000001
1	138047	1257.24490543954	0.075405000000001
1	138214	1258.764905052367	0.074305000000001
1	138371	1260.204905570912	0.074073600000001
1	138508	1261.744906207309	0.073842200000001
1	138596	1262.82490730159	0.073212200000001
1	138718	1264.224907772995	0.072112200000001
1	138877	1265.824907480102	0.071012200000001
1	139034	1267.124907833656	0.070798400000001
1	139147	1268.42490818721	0.070584600000001
[...]
19	112394	1027.64482712912	0.1906674
19	112537	1029.024827576955	0.1905494
19	112727	1030.42482804836	0.1904364
19	112879	1031.844828543335	0.1903234
19	113020	1033.344829132592	0.190213
19	113211	1034.644829486145	0.1898936
19	113332	1036.04482995755	0.1897704
19	113491	1037.444830428955	0.1896556
19	113688	1038.964832041782	0.1894928
19	113688	1038.964832041782	0.1894128
19	113812	1040.244831371765	0.1883128
19	113981	1041.724831937451	0.1881948
19	114114	1043.384833715269	0.1880148
19	114251	1044.504832856691	0.1869148
19	114415	1045.844833257385	0.1867212
19	114557	1047.364833870212	0.1866032
19	114762	1048.684835247336	0.1864278
19	114762	1048.684835247336	0.1863878
19	114911	1050.0448346716	0.1852878
19	115052	1051.604835331567	0.1851646
19	115216	1052.84483561441	0.1848356
19	115404	1054.244836085815	0.1847208
19	115565	1055.744836675072	0.184558
19	115723	1057.044837028625	0.184378
19	115870	1058.44483750003	0.1842152
19	116023	1059.844837971435	0.184092
19	116198	1061.24483844284	0.1839688
19	116346	1062.644838914245	0.1838456
19	116542	1064.04483938565	0.1837352
19	116712	1065.604841045617	0.1836248
19	116712	1065.604841045617	0.1835248
19	116837	1066.84484032846	0.1824248
19	116985	1068.224840776295	0.1823068
19	117154	1069.704841341981	0.1821938
19	117324	1071.264843001948	0.1820002
19	117324	1071.264843001948	0.1818702
19	117425	1072.42484219051	0.1807702
19	117626	1073.924843779766	0.1806572
19	117626	1073.924843779766	0.1805972
19	117835	1075.324844251171	0.1794972
19	117835	1075.324844251171	0.1794372
19	117952	1076.784843793287	0.1783372
19	118108	1078.104844170411	0.1781572
19	118291	1079.444844571105	0.1778522
19	118499	1080.84484504251	0.1777374
19	118698	1082.284846561056	0.1776226
19	118698	1082.284846561056	0.1775826
19	118869	1083.784847150312	0.1764826
19	118869	1083.784847150312	0.1763926
19	119016	1085.044846456725	0.1752926
19	119163	1086.44484692813	0.1751694
19	119311	1088.184848800229	0.1750546
19	119437	1089.24484787094	0.1739546
19	119581	1090.764848483767	0.1738314
19	119722	1092.204849002312	0.173656
19	119860	1093.784850685849	0.173327
19	119982	1095.184851157254	0.172227
19	120169	1096.324850322246	0.171127
19	120326	1097.804851887932	0.1709086
19	120326	1097.804851887932	0.1708086
19	120486	1099.024851147205	0.1697086
19	120684	1100.584852807172	0.1695956
19	120684	1100.584852807172	0.1695056
19	120833	1101.864852137156	0.1684056
19	120977	1103.24485258499	0.1682302
19	121189	1104.684854103536	0.1681154
19	121189	1104.684854103536	0.1680754
19	121360	1106.144854645652	0.1669754
19	121360	1106.144854645652	0.1669054
19	121504	1107.544854117057	0.1658054
19	121614	1108.82485444704	0.1656254
19	121803	1110.384856107007	0.1655124
19	121803	1110.384856107007	0.1654224
19	121906	1111.64485541342	0.1643224
19	122099	1113.084855931966	0.164212
19	122246	1114.504856426941	0.163975
19	122381	1116.004857016197	0.163738
19	122606	1117.24485729904	0.1634228
19	122735	1118.764857911867	0.1633124
19	122930	1120.184859406842	0.1630274
19	122930	1120.184859406842	0.1629374
19	123115	1121.544859831107	0.1618374
19	123115	1121.544859831107	0.1617674
19	123235	1123.184860585354	0.1606674
19	123340	1124.244859656065	0.1595674
19	123499	1125.64486012747	0.1594526
19	123672	1127.044860598875	0.1593294
19	123835	1128.544861188132	0.1592114
19	123973	1129.844861541685	0.1590032
19	124121	1131.404862201652	0.1588928
19	124264	1132.644862484495	0.1585776
19	124416	1134.0448629559	0.1584628
19	124554	1135.504863498016	0.1583448
19	124771	1136.964865040132	0.1581078
19	124771	1136.964865040132	0.1580278
19	124896	1138.244864370115	0.1569278
19	125027	1139.64486484152	0.1568098
19	125182	1141.024865289355	0.1566918
19	125367	1142.644867020033	0.1565788
19	125367	1142.644867020033	0.1564588
19	125468	1143.824866232165	0.1553588
19	125649	1145.24486672714	0.1552458
19	125797	1146.644867198545	0.155131
19	125965	1148.164867811372	0.1549682
19	126104	1149.444868141355	0.1547746
19	126256	1150.84486861276	0.1546642
19	126474	1152.364870225587	0.1545494
19	126474	1152.364870225587	0.1544694
19	126594	1153.984870956264	0.1533694
19	126733	1155.144870144827	0.1522694
19	126899	1156.464870521951	0.152094
19	127043	1157.844870969785	0.1519004
19	127272	1159.284872488331	0.15179
19	127272	1159.284872488331	0.15175
19	127387	1160.764872054017	0.15065
19	127546	1162.384873784694	0.150365
19	127546	1162.384873784694	0.150175
19	127702	1163.504872926116	0.149075
19	127859	1164.84487332681	0.148895
19	127999	1166.364873939637	0.1487322
19	128179	1167.62487424605	0.1484272
19	128331	1169.044874741025	0.1483142
19	128462	1170.44487521243	0.148191
19	128643	1171.844875683835	0.1480806
19	128801	1173.304876225951	0.1479574
19	128971	1174.844877862348	0.1476422
19	128971	1174.844877862348	0.1475222
19	129112	1176.124877192331	0.1464222
19	129248	1177.444877569455	0.1461372
19	129390	1178.944878158712	0.1460192
19	129571	1180.284878559406	0.1457174
19	129718	1181.704879054381	0.1454156
19	129839	1183.044879455075	0.145222
19	129993	1184.784881327174	0.1450988
19	130115	1186.184881798579	0.1439988
19	130236	1187.404881057852	0.1428988
19	130420	1188.644881340695	0.1425836
19	130628	1190.0448818121	0.1424656
19	130753	1191.504882354216	0.1423552
19	130900	1193.004882943472	0.1421182
19	131033	1194.364883367737	0.141803
19	131200	1195.804883886282	0.141498
19	131328	1197.384885569819	0.1412796
19	131450	1198.784886041224	0.1401796
19	131577	1199.844885111935	0.1390796
19	131708	1201.24488558334	0.1389692
19	131887	1202.744887172597	0.1388512
19	131887	1202.744887172597	0.1387812
19	132016	1204.02488650258	0.1376812
19	132151	1205.444886997555	0.1375682
19	132373	1206.84488746896	0.1374534
19	132510	1208.584889341059	0.137343
19	132675	1209.744888529622	0.136243
19	132850	1211.144890001027	0.136063
19	132850	1211.144890001027	0.135993
19	132990	1212.42488933101	0.134893
19	133139	1214.184891226679	0.13478
19	133261	1215.22489027382	0.13368
19	133437	1216.744890886647	0.133567
19	133636	1218.124892334481	0.133387
19	133636	1218.124892334481	0.133327
19	133780	1219.444891711605	0.132227
19	133925	1220.82489215944	0.1320642
19	134071	1222.344892772267	0.1319512
19	134220	1223.64489312582	0.131743
19	134401	1225.204894785787	0.1316198
19	134401	1225.204894785787	0.1315198
19	134573	1226.464894092201	0.1304198
19	134710	1227.844894540035	0.1302444
19	134910	1229.2048949643	0.1300816
19	135068	1230.644895482845	0.1299712
19	135246	1232.064895977821	0.1298084
19	135403	1233.504896496366	0.129633
19	135588	1234.984898062052	0.1294576
19	135588	1234.984898062052	0.1293676
19	135709	1236.424897580597	0.1282676
19	135865	1237.6248978163	0.1280568
19	136018	1239.044898311275	0.1279438
19	136214	1240.44489878268	0.1278334
19	136335	1241.844899254085	0.127723
19	136506	1243.584901126184	0.1276126
19	136506	1243.584901126184	0.1274226
19	136646	1244.624900173325	0.1263226
19	136834	1246.084900715441	0.1262122
19	136964	1247.424901116135	0.1259752
19	137182	1248.964902752532	0.1258622
19	137182	1248.964902752532	0.1257822
19	137302	1250.584903483209	0.1246822
19	137447	1251.744902671772	0.1235822
19	137560	1253.044903025325	0.1234022
19	137697	1254.44490349673	0.123279
19	137866	1255.804903920995	0.1231686
19	138046	1257.24490443954	0.1230582
19	138193	1258.644904910945	0.1229402
19	138346	1260.04490538235	0.1228254
19	138490	1261.564905995177	0.1227106
19	138632	1263.184907725854	0.1224056
19	138754	1264.584908197259	0.1213056
19	138859	1265.64490726797	0.1202056
19	139013	1267.024907715805	0.1200876
19	139159	1268.544908328632	0.1199772
19	139387	1269.804908635045	0.119769
19	139603	1271.24490915359	0.1196586
19	139741	1272.644909624995	0.1195482
19	139915	1274.144911214252	0.1194334
19	139915	1274.144911214252	0.1193634
19	140089	1275.444910567805	0.1182634
19	140225	1276.944911157062	0.1181486
19	140417	1278.244911510615	0.1178468
19	140577	1279.784912147012	0.117732
19	140715	1281.044912453425	0.1175212
19	140927	1282.584913089822	0.1173584
19	141075	1283.844913396235	0.1171476
19	141201	1285.24491386764	0.1170244
19	141393	1286.624914315475	0.1169012
19	141588	1288.04491481045	0.1167882
19	141772	1289.444915281855	0.1166254
19	141923	1290.80491570612	0.1164626
19	142083	1292.244916224665	0.1163496
19	142231	1293.804916884632	0.1161868
19	142386	1295.384918568169	0.1158716
19	142386	1295.384918568169	0.1156816
19	142525	1296.564917780302	0.1145816
19	142642	1297.844918110285	0.114388
19	142796	1299.584919982384	0.1142648
19	142918	1300.984920453789	0.1131648
19	143101	1302.144919642352	0.1120648
19	143225	1303.784921396599	0.1118464
19	143384	1304.904920538021	0.1107464
19	143542	1306.244920938715	0.110571
19	143731	1307.64492141012	0.1104606
19	143874	1309.044921881525	0.1103426
19	144018	1310.564922494352	0.1101798
19	144160	1312.184924225029	0.1100044
19	144277	1313.364923437162	0.1089044
19	144478	1314.624923743575	0.1087108
19	144670	1316.104924309261	0.1085978
19	144796	1317.784926110649	0.1083896
19	144918	1318.82492515779	0.1072896
19	145066	1320.364925794187	0.1071766
19	145223	1321.724926218451	0.1068716
19	145406	1323.144926713427	0.1066916
19	145534	1324.44492706698	0.1065116
19	145769	1325.844927538385	0.1063488
19	145909	1327.264928033361	0.106234
19	146046	1328.744928599047	0.1060586
19	146183	1330.144929070452	0.1057392
19	146310	1331.444929424005	0.1054198
19	146524	1332.82492987184	0.1053094
19	146648	1334.244930366815	0.105199
19	146797	1335.764930979642	0.105081
19	146987	1337.044931309625	0.104796
19	147121	1338.544931898882	0.1046856
19	147268	1339.844932252435	0.1044774
19	147519	1341.344933841692	0.1043594
19	147519	1341.344933841692	0.1042894
19	147638	1342.804933383807	0.1031894
19	147793	1344.384935067344	0.1028742
19	147793	1344.384935067344	0.1026842
19	147913	1345.784935538749	0.1015842
19	148018	1346.84493460946	0.1004842
19	148172	1348.584936481559	0.1003662
19	148319	1349.64493555227	0.0992662
19	148501	1351.104936094386	0.0991482
19	148677	1352.524937589361	0.0989546
19	148677	1352.524937589361	0.0988946
19	148806	1353.844936966485	0.0977946
19	148954	1355.24493743789	0.0976318
19	149092	1356.764938050717	0.097517
19	149226	1358.364939757824	0.0973416
19	149369	1359.444938852105	0.0962416
19	149555	1360.84493932351	0.0961268
19	149691	1362.244939794915	0.0960164
19	149848	1363.964941643444	0.095906
19	149848	1363.964941643444	0.095726
19	149947	1365.044940737725	0.094626
19	150078	1366.44494120913	0.094508
19	150266	1367.824941656965	0.0943452
19	150409	1369.24494215194	0.0942322
19	150600	1370.644942623345	0.0940694
19	150735	1372.04494309475	0.0939514
19	150897	1373.424943542585	0.0938366
19	151054	1374.924944131841	0.0937236
19	151190	1376.564945886089	0.0935154
19	151313	1377.64494498037	0.0924154
19	151450	1379.164945593197	0.0922922
19	151613	1380.44494592318	0.0920072
19	151747	1382.164947771709	0.0918318
19	151870	1383.24494686599	0.0907318
19	152010	1384.964948714519	0.0906138
19	152129	1386.224948020932	0.0895138
19	152257	1387.764949657329	0.089303
19	152388	1388.924948845891	0.088203
19	152535	1390.324949317296	0.0880276
19	152724	1391.664949717991	0.0878194
19	152861	1393.044950165825	0.0876258
19	153022	1394.42495061366	0.0875026
19	153165	1396.004951297197	0.0873896
19	153296	1397.404951768602	0.0871712
19	153453	1398.644952051445	0.086856
19	153591	1400.02495249928	0.0867456
19	153761	1401.544953112107	0.0866308
19	153943	1402.82495344209	0.0864226
19	154105	1404.244953937065	0.0863096
19	154288	1405.784954573462	0.0861864
19	154437	1407.264956139148	0.0859756
19	154437	1407.264956139148	0.0858456
19	154585	1408.40495530414	0.0847456
19	154727	1409.964955964107	0.0846352
19	154858	1411.364956435512	0.0844416
19	155010	1412.704956836206	0.0842662
19	155137	1414.00495718976	0.0840726
19	155305	1415.504957779016	0.0839596
19	155434	1417.004958368272	0.0836546
19	155591	1418.244958651115	0.0833394
19	155744	1419.704959193231	0.0832246
19	155857	1421.024959570355	0.083031
19	156032	1422.44496006533	0.082918
19	156174	1423.844960536735	0.0828032
19	156348	1425.204960961	0.0826404
19	156491	1426.764961620967	0.0825274
19	156652	1428.144962068802	0.0823338
19	156793	1429.544962540207	0.0821256
19	156916	1430.964963035182	0.081932
19	157084	1432.264963388736	0.081627
19	157228	1433.684963883711	0.081342
19	157361	1435.204964496537	0.0811484
19	157552	1436.484965826521	0.0808332
19	157552	1436.484965826521	0.0807932
19	157670	1438.164966627909	0.0796932
19	157857	1439.24496572219	0.0785932
19	157966	1440.644966193595	0.0784828
19	158097	1442.044966665	0.07832
19	158249	1443.444967136405	0.0782052
19	158375	1444.84496760781	0.0780904
19	158521	1446.564969456339	0.0779724
19	158690	1447.664968574191	0.0768724
19	158849	1449.044969022025	0.0766788
19	158989	1450.44496949343	0.0765684
19	159165	1451.864970988406	0.076458
19	159165	1451.864970988406	0.076428
19	159294	1453.404970624802	0.075328
19	159409	1454.644970907645	0.074999
19	159604	1456.04497137905	0.0748886
19	159723	1457.444971850455	0.0747258
19	159883	1458.884972369001	0.0746154
19	160016	1460.564974170389	0.0744046
19	160149	1461.964974641794	0.0733046
19	160149	1461.964974641794	0.0731246
19	160313	1463.044973736075	0.0720246
19	160443	1464.564974348902	0.0719142
19	160571	1466.144976032439	0.0716292
19	160711	1467.24497515029	0.0705292
19	160841	1468.804975810257	0.0704188
19	160971	1470.0449760931	0.070208
19	161120	1471.484976611646	0.0700452
19	161253	1472.84497703591	0.0698344
19	161451	1474.224978483745	0.0697112
19	161451	1474.224978483745	0.0697012
19	161599	1475.724978073001	0.0686012
19	161741	1477.124978544406	0.0684212
19	161881	1478.42497889796	0.0681362
19	162031	1480.144980746489	0.068013
19	162031	1480.144980746489	0.067843
19	162181	1481.22497984077	0.066743
19	162320	1482.644980335745	0.0666198
19	162456	1484.204980995712	0.066505
19	162578	1485.744982632109	0.066176
19	162687	1487.004981938522	0.065076
19	162802	1488.524983551349	0.0647608
19	162894	1489.64498269277	0.0636608
19	163073	1491.124984258456	0.0635376
19	163073	1491.124984258456	0.0634776
19	163176	1492.724984965564	0.0623776
19	163330	1493.844984106985	0.0612776
19	163449	1495.20498453125	0.0611672
19	163586	1496.804985238357	0.0610568
19	163719	1498.104985591911	0.060846
19	163868	1499.444985992605	0.0606524
19	163975	1500.84498646401	0.0605344
19	164124	1502.204986888275	0.0604196
19	164279	1503.704987477531	0.0603066
19	164402	1505.044987878225	0.0601312
19	164513	1506.42498832606	0.060008
19	164651	1507.824988797465	0.059895
19	164790	1509.24498929244	0.059782
19	164916	1510.924991093829	0.0596588
19	165020	1512.324991565234	0.0585588
19	165162	1513.464991730226	0.0574588
19	165162	1513.464991730226	0.0574288
19	165300	1514.924991272341	0.0563288
19	165414	1516.404991838027	0.0561206
19	165553	1517.724992215151	0.0559098
19	165674	1519.044992592275	0.0557298
19	165809	1520.44499306368	0.0556066
19	165972	1521.864994558656	0.0554438
19	165972	1521.864994558656	0.0554138
19	166092	1523.22499398292	0.0543138
19	166272	1524.724995572176	0.0542008
19	166272	1524.724995572176	0.0541408
19	166384	1526.0449949493	0.0530408
19	166558	1527.564996562127	0.052926
19	166558	1527.564996562127	0.052846
19	166661	1528.964996033532	0.051746
19	166790	1530.244996363515	0.0515706
19	166946	1531.64499683492	0.0514602
19	167054	1533.044997306325	0.0513498
19	167233	1534.524998872011	0.0512394
19	167233	1534.524998872011	0.0511794
19	167336	1536.124999579119	0.0500794
19	167440	1537.525000050524	0.0489794
19	167562	1538.684999239086	0.0478794
19	167689	1540.04499966335	0.0476712
19	167814	1541.725001464739	0.0475608
19	167950	1542.985001771152	0.0464608
19	167950	1542.985001771152	0.0463708
19	168049	1544.325001171846	0.0452708
19	168202	1545.64500154897	0.0450626
19	168327	1547.205002208937	0.0449394
19	168430	1548.44500249178	0.0447286
19	168559	1549.945003081037	0.0446054
19	168690	1551.24500343459	0.0443204
19	168847	1552.645003905995	0.0441972
19	168971	1554.02500435383	0.0440868
19	169130	1555.545004966657	0.0439738
19	169252	1556.925005414491	0.0437554
19	169380	1558.245005791615	0.0435754
19	169532	1559.805007451582	0.0434606
19	169532	1559.805007451582	0.0433606
19	169619	1561.045006734425	0.0422606
19	169740	1562.525007300111	0.0420978
19	169854	1564.105008983648	0.0418128
19	169985	1565.345009266492	0.0407128
19	169985	1565.345009266492	0.0406428
19	170082	1566.745008737897	0.0395428
19	170199	1568.185009256442	0.0393674
19	170304	1569.545009680707	0.039149
19	170444	1570.84501003426	0.0389554
19	170576	1572.225010482095	0.038845
19	170691	1573.765011118492	0.0387218
19	170786	1575.045011448475	0.0385418
19	170900	1576.685013202723	0.0384314
19	170999	1577.985012556277	0.0373314
19	171099	1579.485014145533	0.0370162
19	171194	1580.745013451947	0.0359162
19	171328	1582.125013899781	0.0357408
19	171421	1583.685015559748	0.0355326
19	171506	1584.84501474831	0.0344326
19	171611	1586.225015196145	0.0343146
19	171727	1587.885016973963	0.0341914
19	171852	1589.145017280377	0.0330914
19	171852	1589.145017280377	0.0330214
19	171935	1590.44501663393	0.0319214
19	172042	1591.845017105335	0.0318034
19	172177	1593.285017623881	0.0316886
19	172279	1594.885019330988	0.0315132
19	172358	1596.02501849598	0.0304132
19	172499	1597.545020108807	0.03029
19	172499	1597.545020108807	0.03022
19	172599	1598.84501946236	0.02912
19	172713	1600.225019910195	0.0290052
19	172817	1601.865021664443	0.028882
19	172914	1603.205021065137	0.027782
19	173020	1604.44502134798	0.0275712
19	173133	1605.825021795815	0.0274608
19	173247	1607.20502224365	0.0273376
19	173394	1608.645022762195	0.0272272
19	173488	1610.265024492873	0.0271092
19	173586	1611.425023681435	0.0260092
19	173691	1613.065025435683	0.0258962
19	173786	1614.225024624245	0.0247962
19	173916	1615.62502509565	0.024673
19	174037	1617.005025543485	0.0245498
19	174139	1618.505026132741	0.0244394
19	174272	1619.845027533435	0.0242458
19	174272	1619.845027533435	0.0242258
19	174385	1621.325027099121	0.0231258
19	174470	1622.845028711948	0.0229458
19	174598	1624.105029018361	0.0218458
19	174598	1624.105029018361	0.0217958
19	174695	1625.445028419055	0.0206958
19	174792	1626.925028984741	0.0205854
19	174893	1628.385029526857	0.0203772
19	174996	1629.665029856841	0.0201664
19	175093	1631.125030398956	0.019991
19	175197	1632.42503075251	0.0197828
19	175297	1633.905031318196	0.0196698
19	175390	1635.445032954593	0.0194944
19	175487	1636.645032190295	0.0183944
19	175581	1638.245033897403	0.018284
19	175657	1639.445033133105	0.017184
19	175762	1640.945033722362	0.017066
19	175867	1642.445035311618	0.0167508
19	175867	1642.445035311618	0.0166308
19	175959	1643.62503452375	0.0155308
19	176065	1645.165035160147	0.0154178
19	176154	1646.505035560841	0.0152378
19	176264	1647.845035961535	0.0150624
19	176371	1649.22503640937	0.014952
19	176480	1650.605036857205	0.014839
19	176594	1652.185037540742	0.014726
19	176679	1653.645039082858	0.0145152
19	176773	1654.84503831856	0.0134152
19	176856	1656.245038789965	0.0132972
19	176946	1657.825040473502	0.0131868
19	177037	1659.025039709205	0.0120868
19	177146	1660.44504020418	0.0118932
19	177235	1661.945040793437	0.0117752
19	177324	1663.405042335552	0.0115644
19	177324	1663.405042335552	0.0114644
19	177395	1664.685041665536	0.0103644
19	177473	1666.205043278362	0.010189
19	177564	1667.465043584776	0.0090890000000004
19	177564	1667.465043584776	0.0090590000000004
19	177627	1668.80504298547	0.0079590000000004
19	177738	1670.205043456875	0.0078460000000004
19	177814	1671.785045140412	0.0077330000000004
19	177893	1673.005044399685	0.0066330000000004
19	177969	1674.585046083222	0.0065200000000004
19	178031	1675.985046554627	0.0054200000000004
19	178110	1677.385047026032	0.0043200000000004
19	178110	1677.385047026032	0.0042300000000004
19	178183	1678.745046450297	0.0031300000000004
19	178247	1680.185047968842	0.0029192000000004
19	178338	1681.465048298826	0.0018192000000004
19	178338	1681.465048298826	0.0017892000000004
19	178435	1682.925048840941	0.0006892000000004
19	178435	1682.925048840941	0.0006292000000004

