version 2
run General-0-20120502-15:06:59-3584
attr configname General
attr datetime 20120502-15:06:59
attr experiment General
attr inifile omnetpp.ini
attr iterationvars ""
attr iterationvars2 $repetition=0
attr measurement ""
attr network DataCentricNet
attr processid 3584
attr repetition 0
attr replication #0
attr resultdir results
attr runnumber 0
attr seedset 0

scalar DataCentricNet.host[0].app 	trafficSent 	0
scalar DataCentricNet.host[0].app 	"total bytes received" 	0
scalar DataCentricNet.host[0].net 	"num of pkts forwarded" 	0
scalar DataCentricNet.host[0].nic.ifq 	queueLength:max 	0
attr interpolationmode  sample-hold
attr title  "queue length, max"
scalar DataCentricNet.host[0].nic.ifq 	queueLength:timeavg 	0
attr interpolationmode  sample-hold
attr title  "queue length, timeavg"
statistic DataCentricNet.host[0].nic.ifq 	queueingTime:histogram
field count 2
field mean 0
field stddev 0
field sum 0
field sqrsum 0
field min 0
field max 0
attr interpolationmode  none
attr title  "queueing time, histogram"
bin	-INF	0
bin	-0.5	0
bin	-0.46666666666667	0
bin	-0.43333333333333	0
bin	-0.4	0
bin	-0.36666666666667	0
bin	-0.33333333333333	0
bin	-0.3	0
bin	-0.26666666666667	0
bin	-0.23333333333333	0
bin	-0.2	0
bin	-0.16666666666667	0
bin	-0.13333333333333	0
bin	-0.1	0
bin	-0.066666666666667	0
bin	-0.033333333333333	0
bin	-6.9388939039072e-018	2
bin	0.033333333333333	0
bin	0.066666666666667	0
bin	0.1	0
bin	0.13333333333333	0
bin	0.16666666666667	0
bin	0.2	0
bin	0.23333333333333	0
bin	0.26666666666667	0
bin	0.3	0
bin	0.33333333333333	0
bin	0.36666666666667	0
bin	0.4	0
bin	0.43333333333333	0
bin	0.46666666666667	0
bin	0.5	0
scalar DataCentricNet.host[0].nic.ifq 	dropPk:count 	0
attr interpolationmode  none
attr source  dropPkByQueue
attr title  "dropped packets, count"
scalar DataCentricNet.host[0].nic.ifq 	dropPk:sum(packetBytes) 	0
attr interpolationmode  none
attr source  dropPkByQueue
attr title  "dropped packets, sum(packetBytes)"
scalar DataCentricNet.host[0].nic.mac 	nbTxFrames 	2
scalar DataCentricNet.host[0].nic.mac 	nbRxFrames 	0
scalar DataCentricNet.host[0].nic.mac 	nbDroppedFrames 	0
scalar DataCentricNet.host[0].nic.mac 	nbMissedAcks 	0
scalar DataCentricNet.host[0].nic.mac 	nbRecvdAcks 	0
scalar DataCentricNet.host[0].nic.mac 	nbTxAcks 	0
scalar DataCentricNet.host[0].nic.mac 	nbDuplicates 	0
scalar DataCentricNet.host[0].nic.mac 	meanBackoff 	0.0018133333333333
scalar DataCentricNet.host[0].nic.mac 	nbBackoffs 	3
scalar DataCentricNet.host[0].nic.mac 	backoffDurations 	0.00544
scalar DataCentricNet.host[0].nic.phy 	lossRate:min 	0.32
attr interpolationmode  backward-sample-hold
attr title  "packet loss rate, min"
scalar DataCentricNet.host[0].nic.phy 	lossRate:max 	0.32
attr interpolationmode  backward-sample-hold
attr title  "packet loss rate, max"
scalar DataCentricNet.host[0].nic.phy 	lossRate:timeavg 	0.32
attr interpolationmode  backward-sample-hold
attr title  "packet loss rate, timeavg"
scalar DataCentricNet.host[0].nic.phy 	radioState:count 	195
attr interpolationmode  sample-hold
attr title  "radio state (enum), count"
statistic DataCentricNet.host[0].nic.phy 	channelNo:histogram
field count 1
field mean 11
field stddev -1.#IND
field sum 11
field sqrsum 121
field min 11
field max 11
attr interpolationmode  sample-hold
attr title  "channel no, histogram"
bin	-INF	0
bin	10	0
bin	11	1
bin	12	0
scalar DataCentricNet.host[0].nic.phy 	bitrate:min 	250000
attr interpolationmode  sample-hold
attr title  "tx bitrate, min"
attr unit  bps
scalar DataCentricNet.host[0].nic.phy 	bitrate:max 	250000
attr interpolationmode  sample-hold
attr title  "tx bitrate, max"
attr unit  bps
scalar DataCentricNet.host[0].nic.phy 	bitrate:timeavg 	250000
attr interpolationmode  sample-hold
attr title  "tx bitrate, timeavg"
attr unit  bps
scalar DataCentricNet.host[1].app 	trafficSent 	0
scalar DataCentricNet.host[1].app 	"total bytes received" 	0
scalar DataCentricNet.host[1].net 	"num of pkts forwarded" 	0
scalar DataCentricNet.host[1].nic.ifq 	queueLength:max 	0
attr interpolationmode  sample-hold
attr title  "queue length, max"
scalar DataCentricNet.host[1].nic.ifq 	queueLength:timeavg 	0
attr interpolationmode  sample-hold
attr title  "queue length, timeavg"
statistic DataCentricNet.host[1].nic.ifq 	queueingTime:histogram
field count 3
field mean 0
field stddev 0
field sum 0
field sqrsum 0
field min 0
field max 0
attr interpolationmode  none
attr title  "queueing time, histogram"
bin	-INF	0
bin	-0.5	0
bin	-0.46666666666667	0
bin	-0.43333333333333	0
bin	-0.4	0
bin	-0.36666666666667	0
bin	-0.33333333333333	0
bin	-0.3	0
bin	-0.26666666666667	0
bin	-0.23333333333333	0
bin	-0.2	0
bin	-0.16666666666667	0
bin	-0.13333333333333	0
bin	-0.1	0
bin	-0.066666666666667	0
bin	-0.033333333333333	0
bin	-6.9388939039072e-018	3
bin	0.033333333333333	0
bin	0.066666666666667	0
bin	0.1	0
bin	0.13333333333333	0
bin	0.16666666666667	0
bin	0.2	0
bin	0.23333333333333	0
bin	0.26666666666667	0
bin	0.3	0
bin	0.33333333333333	0
bin	0.36666666666667	0
bin	0.4	0
bin	0.43333333333333	0
bin	0.46666666666667	0
bin	0.5	0
scalar DataCentricNet.host[1].nic.ifq 	dropPk:count 	0
attr interpolationmode  none
attr source  dropPkByQueue
attr title  "dropped packets, count"
scalar DataCentricNet.host[1].nic.ifq 	dropPk:sum(packetBytes) 	0
attr interpolationmode  none
attr source  dropPkByQueue
attr title  "dropped packets, sum(packetBytes)"
scalar DataCentricNet.host[1].nic.mac 	nbTxFrames 	3
scalar DataCentricNet.host[1].nic.mac 	nbRxFrames 	0
scalar DataCentricNet.host[1].nic.mac 	nbDroppedFrames 	0
scalar DataCentricNet.host[1].nic.mac 	nbMissedAcks 	0
scalar DataCentricNet.host[1].nic.mac 	nbRecvdAcks 	0
scalar DataCentricNet.host[1].nic.mac 	nbTxAcks 	0
scalar DataCentricNet.host[1].nic.mac 	nbDuplicates 	0
scalar DataCentricNet.host[1].nic.mac 	meanBackoff 	0.0018133333333333
scalar DataCentricNet.host[1].nic.mac 	nbBackoffs 	3
scalar DataCentricNet.host[1].nic.mac 	backoffDurations 	0.00544
scalar DataCentricNet.host[1].nic.phy 	lossRate:min 	0.38
attr interpolationmode  backward-sample-hold
attr title  "packet loss rate, min"
scalar DataCentricNet.host[1].nic.phy 	lossRate:max 	0.38
attr interpolationmode  backward-sample-hold
attr title  "packet loss rate, max"
scalar DataCentricNet.host[1].nic.phy 	lossRate:timeavg 	0.38
attr interpolationmode  backward-sample-hold
attr title  "packet loss rate, timeavg"
scalar DataCentricNet.host[1].nic.phy 	radioState:count 	230
attr interpolationmode  sample-hold
attr title  "radio state (enum), count"
statistic DataCentricNet.host[1].nic.phy 	channelNo:histogram
field count 1
field mean 11
field stddev -1.#IND
field sum 11
field sqrsum 121
field min 11
field max 11
attr interpolationmode  sample-hold
attr title  "channel no, histogram"
bin	-INF	0
bin	10	0
bin	11	1
bin	12	0
scalar DataCentricNet.host[1].nic.phy 	bitrate:min 	250000
attr interpolationmode  sample-hold
attr title  "tx bitrate, min"
attr unit  bps
scalar DataCentricNet.host[1].nic.phy 	bitrate:max 	250000
attr interpolationmode  sample-hold
attr title  "tx bitrate, max"
attr unit  bps
scalar DataCentricNet.host[1].nic.phy 	bitrate:timeavg 	250000
attr interpolationmode  sample-hold
attr title  "tx bitrate, timeavg"
attr unit  bps
scalar DataCentricNet.host[2].app 	trafficSent 	0
scalar DataCentricNet.host[2].app 	"total bytes received" 	0
scalar DataCentricNet.host[2].net 	"num of pkts forwarded" 	0
scalar DataCentricNet.host[2].nic.ifq 	queueLength:max 	0
attr interpolationmode  sample-hold
attr title  "queue length, max"
scalar DataCentricNet.host[2].nic.ifq 	queueLength:timeavg 	0
attr interpolationmode  sample-hold
attr title  "queue length, timeavg"
statistic DataCentricNet.host[2].nic.ifq 	queueingTime:histogram
field count 3
field mean 0
field stddev 0
field sum 0
field sqrsum 0
field min 0
field max 0
attr interpolationmode  none
attr title  "queueing time, histogram"
bin	-INF	0
bin	-0.5	0
bin	-0.46666666666667	0
bin	-0.43333333333333	0
bin	-0.4	0
bin	-0.36666666666667	0
bin	-0.33333333333333	0
bin	-0.3	0
bin	-0.26666666666667	0
bin	-0.23333333333333	0
bin	-0.2	0
bin	-0.16666666666667	0
bin	-0.13333333333333	0
bin	-0.1	0
bin	-0.066666666666667	0
bin	-0.033333333333333	0
bin	-6.9388939039072e-018	3
bin	0.033333333333333	0
bin	0.066666666666667	0
bin	0.1	0
bin	0.13333333333333	0
bin	0.16666666666667	0
bin	0.2	0
bin	0.23333333333333	0
bin	0.26666666666667	0
bin	0.3	0
bin	0.33333333333333	0
bin	0.36666666666667	0
bin	0.4	0
bin	0.43333333333333	0
bin	0.46666666666667	0
bin	0.5	0
scalar DataCentricNet.host[2].nic.ifq 	dropPk:count 	0
attr interpolationmode  none
attr source  dropPkByQueue
attr title  "dropped packets, count"
scalar DataCentricNet.host[2].nic.ifq 	dropPk:sum(packetBytes) 	0
attr interpolationmode  none
attr source  dropPkByQueue
attr title  "dropped packets, sum(packetBytes)"
scalar DataCentricNet.host[2].nic.mac 	nbTxFrames 	3
scalar DataCentricNet.host[2].nic.mac 	nbRxFrames 	0
scalar DataCentricNet.host[2].nic.mac 	nbDroppedFrames 	0
scalar DataCentricNet.host[2].nic.mac 	nbMissedAcks 	0
scalar DataCentricNet.host[2].nic.mac 	nbRecvdAcks 	0
scalar DataCentricNet.host[2].nic.mac 	nbTxAcks 	0
scalar DataCentricNet.host[2].nic.mac 	nbDuplicates 	0
scalar DataCentricNet.host[2].nic.mac 	meanBackoff 	0.0014933333333333
scalar DataCentricNet.host[2].nic.mac 	nbBackoffs 	3
scalar DataCentricNet.host[2].nic.mac 	backoffDurations 	0.00448
scalar DataCentricNet.host[2].nic.phy 	lossRate:min 	0.36
attr interpolationmode  backward-sample-hold
attr title  "packet loss rate, min"
scalar DataCentricNet.host[2].nic.phy 	lossRate:max 	0.4
attr interpolationmode  backward-sample-hold
attr title  "packet loss rate, max"
scalar DataCentricNet.host[2].nic.phy 	lossRate:timeavg 	0.39988401417427
attr interpolationmode  backward-sample-hold
attr title  "packet loss rate, timeavg"
scalar DataCentricNet.host[2].nic.phy 	radioState:count 	254
attr interpolationmode  sample-hold
attr title  "radio state (enum), count"
statistic DataCentricNet.host[2].nic.phy 	channelNo:histogram
field count 1
field mean 11
field stddev -1.#IND
field sum 11
field sqrsum 121
field min 11
field max 11
attr interpolationmode  sample-hold
attr title  "channel no, histogram"
bin	-INF	0
bin	10	0
bin	11	1
bin	12	0
scalar DataCentricNet.host[2].nic.phy 	bitrate:min 	250000
attr interpolationmode  sample-hold
attr title  "tx bitrate, min"
attr unit  bps
scalar DataCentricNet.host[2].nic.phy 	bitrate:max 	250000
attr interpolationmode  sample-hold
attr title  "tx bitrate, max"
attr unit  bps
scalar DataCentricNet.host[2].nic.phy 	bitrate:timeavg 	250000
attr interpolationmode  sample-hold
attr title  "tx bitrate, timeavg"
attr unit  bps
scalar DataCentricNet.host[3].app 	trafficSent 	0
scalar DataCentricNet.host[3].app 	"total bytes received" 	0
scalar DataCentricNet.host[3].net 	"num of pkts forwarded" 	0
scalar DataCentricNet.host[3].nic.ifq 	queueLength:max 	0
attr interpolationmode  sample-hold
attr title  "queue length, max"
scalar DataCentricNet.host[3].nic.ifq 	queueLength:timeavg 	0
attr interpolationmode  sample-hold
attr title  "queue length, timeavg"
statistic DataCentricNet.host[3].nic.ifq 	queueingTime:histogram
field count 3
field mean 0
field stddev 0
field sum 0
field sqrsum 0
field min 0
field max 0
attr interpolationmode  none
attr title  "queueing time, histogram"
bin	-INF	0
bin	-0.5	0
bin	-0.46666666666667	0
bin	-0.43333333333333	0
bin	-0.4	0
bin	-0.36666666666667	0
bin	-0.33333333333333	0
bin	-0.3	0
bin	-0.26666666666667	0
bin	-0.23333333333333	0
bin	-0.2	0
bin	-0.16666666666667	0
bin	-0.13333333333333	0
bin	-0.1	0
bin	-0.066666666666667	0
bin	-0.033333333333333	0
bin	-6.9388939039072e-018	3
bin	0.033333333333333	0
bin	0.066666666666667	0
bin	0.1	0
bin	0.13333333333333	0
bin	0.16666666666667	0
bin	0.2	0
bin	0.23333333333333	0
bin	0.26666666666667	0
bin	0.3	0
bin	0.33333333333333	0
bin	0.36666666666667	0
bin	0.4	0
bin	0.43333333333333	0
bin	0.46666666666667	0
bin	0.5	0
scalar DataCentricNet.host[3].nic.ifq 	dropPk:count 	0
attr interpolationmode  none
attr source  dropPkByQueue
attr title  "dropped packets, count"
scalar DataCentricNet.host[3].nic.ifq 	dropPk:sum(packetBytes) 	0
attr interpolationmode  none
attr source  dropPkByQueue
attr title  "dropped packets, sum(packetBytes)"
scalar DataCentricNet.host[3].nic.mac 	nbTxFrames 	3
scalar DataCentricNet.host[3].nic.mac 	nbRxFrames 	0
scalar DataCentricNet.host[3].nic.mac 	nbDroppedFrames 	0
scalar DataCentricNet.host[3].nic.mac 	nbMissedAcks 	0
scalar DataCentricNet.host[3].nic.mac 	nbRecvdAcks 	0
scalar DataCentricNet.host[3].nic.mac 	nbTxAcks 	0
scalar DataCentricNet.host[3].nic.mac 	nbDuplicates 	0
scalar DataCentricNet.host[3].nic.mac 	meanBackoff 	0.00144
scalar DataCentricNet.host[3].nic.mac 	nbBackoffs 	4
scalar DataCentricNet.host[3].nic.mac 	backoffDurations 	0.00576
scalar DataCentricNet.host[3].nic.phy 	lossRate:min 	0.42
attr interpolationmode  backward-sample-hold
attr title  "packet loss rate, min"
scalar DataCentricNet.host[3].nic.phy 	lossRate:max 	0.42
attr interpolationmode  backward-sample-hold
attr title  "packet loss rate, max"
scalar DataCentricNet.host[3].nic.phy 	lossRate:timeavg 	0.42
attr interpolationmode  backward-sample-hold
attr title  "packet loss rate, timeavg"
scalar DataCentricNet.host[3].nic.phy 	radioState:count 	270
attr interpolationmode  sample-hold
attr title  "radio state (enum), count"
statistic DataCentricNet.host[3].nic.phy 	channelNo:histogram
field count 1
field mean 11
field stddev -1.#IND
field sum 11
field sqrsum 121
field min 11
field max 11
attr interpolationmode  sample-hold
attr title  "channel no, histogram"
bin	-INF	0
bin	10	0
bin	11	1
bin	12	0
scalar DataCentricNet.host[3].nic.phy 	bitrate:min 	250000
attr interpolationmode  sample-hold
attr title  "tx bitrate, min"
attr unit  bps
scalar DataCentricNet.host[3].nic.phy 	bitrate:max 	250000
attr interpolationmode  sample-hold
attr title  "tx bitrate, max"
attr unit  bps
scalar DataCentricNet.host[3].nic.phy 	bitrate:timeavg 	250000
attr interpolationmode  sample-hold
attr title  "tx bitrate, timeavg"
attr unit  bps
scalar DataCentricNet.host[4].app 	trafficSent 	0
scalar DataCentricNet.host[4].app 	"total bytes received" 	0
scalar DataCentricNet.host[4].net 	"num of pkts forwarded" 	0
scalar DataCentricNet.host[4].nic.ifq 	queueLength:max 	0
attr interpolationmode  sample-hold
attr title  "queue length, max"
scalar DataCentricNet.host[4].nic.ifq 	queueLength:timeavg 	0
attr interpolationmode  sample-hold
attr title  "queue length, timeavg"
statistic DataCentricNet.host[4].nic.ifq 	queueingTime:histogram
field count 7
field mean 0
field stddev 0
field sum 0
field sqrsum 0
field min 0
field max 0
attr interpolationmode  none
attr title  "queueing time, histogram"
bin	-INF	0
bin	-0.5	0
bin	-0.46666666666667	0
bin	-0.43333333333333	0
bin	-0.4	0
bin	-0.36666666666667	0
bin	-0.33333333333333	0
bin	-0.3	0
bin	-0.26666666666667	0
bin	-0.23333333333333	0
bin	-0.2	0
bin	-0.16666666666667	0
bin	-0.13333333333333	0
bin	-0.1	0
bin	-0.066666666666667	0
bin	-0.033333333333333	0
bin	-6.9388939039072e-018	7
bin	0.033333333333333	0
bin	0.066666666666667	0
bin	0.1	0
bin	0.13333333333333	0
bin	0.16666666666667	0
bin	0.2	0
bin	0.23333333333333	0
bin	0.26666666666667	0
bin	0.3	0
bin	0.33333333333333	0
bin	0.36666666666667	0
bin	0.4	0
bin	0.43333333333333	0
bin	0.46666666666667	0
bin	0.5	0
scalar DataCentricNet.host[4].nic.ifq 	dropPk:count 	0
attr interpolationmode  none
attr source  dropPkByQueue
attr title  "dropped packets, count"
scalar DataCentricNet.host[4].nic.ifq 	dropPk:sum(packetBytes) 	0
attr interpolationmode  none
attr source  dropPkByQueue
attr title  "dropped packets, sum(packetBytes)"
scalar DataCentricNet.host[4].nic.mac 	nbTxFrames 	7
scalar DataCentricNet.host[4].nic.mac 	nbRxFrames 	0
scalar DataCentricNet.host[4].nic.mac 	nbDroppedFrames 	0
scalar DataCentricNet.host[4].nic.mac 	nbMissedAcks 	0
scalar DataCentricNet.host[4].nic.mac 	nbRecvdAcks 	3
scalar DataCentricNet.host[4].nic.mac 	nbTxAcks 	0
scalar DataCentricNet.host[4].nic.mac 	nbDuplicates 	0
scalar DataCentricNet.host[4].nic.mac 	meanBackoff 	0.0021333333333333
scalar DataCentricNet.host[4].nic.mac 	nbBackoffs 	9
scalar DataCentricNet.host[4].nic.mac 	backoffDurations 	0.0192
scalar DataCentricNet.host[4].nic.phy 	lossRate:min 	0.58
attr interpolationmode  backward-sample-hold
attr title  "packet loss rate, min"
scalar DataCentricNet.host[4].nic.phy 	lossRate:max 	0.58
attr interpolationmode  backward-sample-hold
attr title  "packet loss rate, max"
scalar DataCentricNet.host[4].nic.phy 	lossRate:timeavg 	0.58
attr interpolationmode  backward-sample-hold
attr title  "packet loss rate, timeavg"
scalar DataCentricNet.host[4].nic.phy 	radioState:count 	301
attr interpolationmode  sample-hold
attr title  "radio state (enum), count"
statistic DataCentricNet.host[4].nic.phy 	channelNo:histogram
field count 1
field mean 11
field stddev -1.#IND
field sum 11
field sqrsum 121
field min 11
field max 11
attr interpolationmode  sample-hold
attr title  "channel no, histogram"
bin	-INF	0
bin	10	0
bin	11	1
bin	12	0
scalar DataCentricNet.host[4].nic.phy 	bitrate:min 	250000
attr interpolationmode  sample-hold
attr title  "tx bitrate, min"
attr unit  bps
scalar DataCentricNet.host[4].nic.phy 	bitrate:max 	250000
attr interpolationmode  sample-hold
attr title  "tx bitrate, max"
attr unit  bps
scalar DataCentricNet.host[4].nic.phy 	bitrate:timeavg 	250000
attr interpolationmode  sample-hold
attr title  "tx bitrate, timeavg"
attr unit  bps
scalar DataCentricNet.host[5].app 	trafficSent 	0
scalar DataCentricNet.host[5].app 	"total bytes received" 	0
scalar DataCentricNet.host[5].net 	"num of pkts forwarded" 	0
scalar DataCentricNet.host[5].nic.ifq 	queueLength:max 	0
attr interpolationmode  sample-hold
attr title  "queue length, max"
scalar DataCentricNet.host[5].nic.ifq 	queueLength:timeavg 	0
attr interpolationmode  sample-hold
attr title  "queue length, timeavg"
statistic DataCentricNet.host[5].nic.ifq 	queueingTime:histogram
field count 5
field mean 0
field stddev 0
field sum 0
field sqrsum 0
field min 0
field max 0
attr interpolationmode  none
attr title  "queueing time, histogram"
bin	-INF	0
bin	-0.5	0
bin	-0.46666666666667	0
bin	-0.43333333333333	0
bin	-0.4	0
bin	-0.36666666666667	0
bin	-0.33333333333333	0
bin	-0.3	0
bin	-0.26666666666667	0
bin	-0.23333333333333	0
bin	-0.2	0
bin	-0.16666666666667	0
bin	-0.13333333333333	0
bin	-0.1	0
bin	-0.066666666666667	0
bin	-0.033333333333333	0
bin	-6.9388939039072e-018	5
bin	0.033333333333333	0
bin	0.066666666666667	0
bin	0.1	0
bin	0.13333333333333	0
bin	0.16666666666667	0
bin	0.2	0
bin	0.23333333333333	0
bin	0.26666666666667	0
bin	0.3	0
bin	0.33333333333333	0
bin	0.36666666666667	0
bin	0.4	0
bin	0.43333333333333	0
bin	0.46666666666667	0
bin	0.5	0
scalar DataCentricNet.host[5].nic.ifq 	dropPk:count 	0
attr interpolationmode  none
attr source  dropPkByQueue
attr title  "dropped packets, count"
scalar DataCentricNet.host[5].nic.ifq 	dropPk:sum(packetBytes) 	0
attr interpolationmode  none
attr source  dropPkByQueue
attr title  "dropped packets, sum(packetBytes)"
scalar DataCentricNet.host[5].nic.mac 	nbTxFrames 	5
scalar DataCentricNet.host[5].nic.mac 	nbRxFrames 	0
scalar DataCentricNet.host[5].nic.mac 	nbDroppedFrames 	0
scalar DataCentricNet.host[5].nic.mac 	nbMissedAcks 	0
scalar DataCentricNet.host[5].nic.mac 	nbRecvdAcks 	0
scalar DataCentricNet.host[5].nic.mac 	nbTxAcks 	0
scalar DataCentricNet.host[5].nic.mac 	nbDuplicates 	0
scalar DataCentricNet.host[5].nic.mac 	meanBackoff 	0.001536
scalar DataCentricNet.host[5].nic.mac 	nbBackoffs 	5
scalar DataCentricNet.host[5].nic.mac 	backoffDurations 	0.00768
scalar DataCentricNet.host[5].nic.phy 	lossRate:min 	0.52
attr interpolationmode  backward-sample-hold
attr title  "packet loss rate, min"
scalar DataCentricNet.host[5].nic.phy 	lossRate:max 	0.52
attr interpolationmode  backward-sample-hold
attr title  "packet loss rate, max"
scalar DataCentricNet.host[5].nic.phy 	lossRate:timeavg 	0.52
attr interpolationmode  backward-sample-hold
attr title  "packet loss rate, timeavg"
scalar DataCentricNet.host[5].nic.phy 	radioState:count 	310
attr interpolationmode  sample-hold
attr title  "radio state (enum), count"
statistic DataCentricNet.host[5].nic.phy 	channelNo:histogram
field count 1
field mean 11
field stddev -1.#IND
field sum 11
field sqrsum 121
field min 11
field max 11
attr interpolationmode  sample-hold
attr title  "channel no, histogram"
bin	-INF	0
bin	10	0
bin	11	1
bin	12	0
scalar DataCentricNet.host[5].nic.phy 	bitrate:min 	250000
attr interpolationmode  sample-hold
attr title  "tx bitrate, min"
attr unit  bps
scalar DataCentricNet.host[5].nic.phy 	bitrate:max 	250000
attr interpolationmode  sample-hold
attr title  "tx bitrate, max"
attr unit  bps
scalar DataCentricNet.host[5].nic.phy 	bitrate:timeavg 	250000
attr interpolationmode  sample-hold
attr title  "tx bitrate, timeavg"
attr unit  bps
scalar DataCentricNet.host[6].app 	trafficSent 	0
scalar DataCentricNet.host[6].app 	"total bytes received" 	0
scalar DataCentricNet.host[6].net 	"num of pkts forwarded" 	0
scalar DataCentricNet.host[6].nic.ifq 	queueLength:max 	0
attr interpolationmode  sample-hold
attr title  "queue length, max"
scalar DataCentricNet.host[6].nic.ifq 	queueLength:timeavg 	0
attr interpolationmode  sample-hold
attr title  "queue length, timeavg"
statistic DataCentricNet.host[6].nic.ifq 	queueingTime:histogram
field count 7
field mean 0
field stddev 0
field sum 0
field sqrsum 0
field min 0
field max 0
attr interpolationmode  none
attr title  "queueing time, histogram"
bin	-INF	0
bin	-0.5	0
bin	-0.46666666666667	0
bin	-0.43333333333333	0
bin	-0.4	0
bin	-0.36666666666667	0
bin	-0.33333333333333	0
bin	-0.3	0
bin	-0.26666666666667	0
bin	-0.23333333333333	0
bin	-0.2	0
bin	-0.16666666666667	0
bin	-0.13333333333333	0
bin	-0.1	0
bin	-0.066666666666667	0
bin	-0.033333333333333	0
bin	-6.9388939039072e-018	7
bin	0.033333333333333	0
bin	0.066666666666667	0
bin	0.1	0
bin	0.13333333333333	0
bin	0.16666666666667	0
bin	0.2	0
bin	0.23333333333333	0
bin	0.26666666666667	0
bin	0.3	0
bin	0.33333333333333	0
bin	0.36666666666667	0
bin	0.4	0
bin	0.43333333333333	0
bin	0.46666666666667	0
bin	0.5	0
scalar DataCentricNet.host[6].nic.ifq 	dropPk:count 	0
attr interpolationmode  none
attr source  dropPkByQueue
attr title  "dropped packets, count"
scalar DataCentricNet.host[6].nic.ifq 	dropPk:sum(packetBytes) 	0
attr interpolationmode  none
attr source  dropPkByQueue
attr title  "dropped packets, sum(packetBytes)"
scalar DataCentricNet.host[6].nic.mac 	nbTxFrames 	7
scalar DataCentricNet.host[6].nic.mac 	nbRxFrames 	0
scalar DataCentricNet.host[6].nic.mac 	nbDroppedFrames 	0
scalar DataCentricNet.host[6].nic.mac 	nbMissedAcks 	0
scalar DataCentricNet.host[6].nic.mac 	nbRecvdAcks 	0
scalar DataCentricNet.host[6].nic.mac 	nbTxAcks 	0
scalar DataCentricNet.host[6].nic.mac 	nbDuplicates 	0
scalar DataCentricNet.host[6].nic.mac 	meanBackoff 	0.0024145454545455
scalar DataCentricNet.host[6].nic.mac 	nbBackoffs 	11
scalar DataCentricNet.host[6].nic.mac 	backoffDurations 	0.02656
scalar DataCentricNet.host[6].nic.phy 	lossRate:min 	0.66
attr interpolationmode  backward-sample-hold
attr title  "packet loss rate, min"
scalar DataCentricNet.host[6].nic.phy 	lossRate:max 	0.66
attr interpolationmode  backward-sample-hold
attr title  "packet loss rate, max"
scalar DataCentricNet.host[6].nic.phy 	lossRate:timeavg 	0.66
attr interpolationmode  backward-sample-hold
attr title  "packet loss rate, timeavg"
scalar DataCentricNet.host[6].nic.phy 	radioState:count 	286
attr interpolationmode  sample-hold
attr title  "radio state (enum), count"
statistic DataCentricNet.host[6].nic.phy 	channelNo:histogram
field count 1
field mean 11
field stddev -1.#IND
field sum 11
field sqrsum 121
field min 11
field max 11
attr interpolationmode  sample-hold
attr title  "channel no, histogram"
bin	-INF	0
bin	10	0
bin	11	1
bin	12	0
scalar DataCentricNet.host[6].nic.phy 	bitrate:min 	250000
attr interpolationmode  sample-hold
attr title  "tx bitrate, min"
attr unit  bps
scalar DataCentricNet.host[6].nic.phy 	bitrate:max 	250000
attr interpolationmode  sample-hold
attr title  "tx bitrate, max"
attr unit  bps
scalar DataCentricNet.host[6].nic.phy 	bitrate:timeavg 	250000
attr interpolationmode  sample-hold
attr title  "tx bitrate, timeavg"
attr unit  bps
scalar DataCentricNet.host[7].app 	trafficSent 	0
scalar DataCentricNet.host[7].app 	"total bytes received" 	0
scalar DataCentricNet.host[7].net 	"num of pkts forwarded" 	0
scalar DataCentricNet.host[7].nic.ifq 	queueLength:max 	0
attr interpolationmode  sample-hold
attr title  "queue length, max"
scalar DataCentricNet.host[7].nic.ifq 	queueLength:timeavg 	0
attr interpolationmode  sample-hold
attr title  "queue length, timeavg"
statistic DataCentricNet.host[7].nic.ifq 	queueingTime:histogram
field count 7
field mean 0
field stddev 0
field sum 0
field sqrsum 0
field min 0
field max 0
attr interpolationmode  none
attr title  "queueing time, histogram"
bin	-INF	0
bin	-0.5	0
bin	-0.46666666666667	0
bin	-0.43333333333333	0
bin	-0.4	0
bin	-0.36666666666667	0
bin	-0.33333333333333	0
bin	-0.3	0
bin	-0.26666666666667	0
bin	-0.23333333333333	0
bin	-0.2	0
bin	-0.16666666666667	0
bin	-0.13333333333333	0
bin	-0.1	0
bin	-0.066666666666667	0
bin	-0.033333333333333	0
bin	-6.9388939039072e-018	7
bin	0.033333333333333	0
bin	0.066666666666667	0
bin	0.1	0
bin	0.13333333333333	0
bin	0.16666666666667	0
bin	0.2	0
bin	0.23333333333333	0
bin	0.26666666666667	0
bin	0.3	0
bin	0.33333333333333	0
bin	0.36666666666667	0
bin	0.4	0
bin	0.43333333333333	0
bin	0.46666666666667	0
bin	0.5	0
scalar DataCentricNet.host[7].nic.ifq 	dropPk:count 	0
attr interpolationmode  none
attr source  dropPkByQueue
attr title  "dropped packets, count"
scalar DataCentricNet.host[7].nic.ifq 	dropPk:sum(packetBytes) 	0
attr interpolationmode  none
attr source  dropPkByQueue
attr title  "dropped packets, sum(packetBytes)"
scalar DataCentricNet.host[7].nic.mac 	nbTxFrames 	7
scalar DataCentricNet.host[7].nic.mac 	nbRxFrames 	0
scalar DataCentricNet.host[7].nic.mac 	nbDroppedFrames 	0
scalar DataCentricNet.host[7].nic.mac 	nbMissedAcks 	0
scalar DataCentricNet.host[7].nic.mac 	nbRecvdAcks 	0
scalar DataCentricNet.host[7].nic.mac 	nbTxAcks 	0
scalar DataCentricNet.host[7].nic.mac 	nbDuplicates 	0
scalar DataCentricNet.host[7].nic.mac 	meanBackoff 	0.0022892307692308
scalar DataCentricNet.host[7].nic.mac 	nbBackoffs 	13
scalar DataCentricNet.host[7].nic.mac 	backoffDurations 	0.02976
scalar DataCentricNet.host[7].nic.phy 	lossRate:min 	0.42
attr interpolationmode  backward-sample-hold
attr title  "packet loss rate, min"
scalar DataCentricNet.host[7].nic.phy 	lossRate:max 	0.42
attr interpolationmode  backward-sample-hold
attr title  "packet loss rate, max"
scalar DataCentricNet.host[7].nic.phy 	lossRate:timeavg 	0.42
attr interpolationmode  backward-sample-hold
attr title  "packet loss rate, timeavg"
scalar DataCentricNet.host[7].nic.phy 	radioState:count 	275
attr interpolationmode  sample-hold
attr title  "radio state (enum), count"
statistic DataCentricNet.host[7].nic.phy 	channelNo:histogram
field count 1
field mean 11
field stddev -1.#IND
field sum 11
field sqrsum 121
field min 11
field max 11
attr interpolationmode  sample-hold
attr title  "channel no, histogram"
bin	-INF	0
bin	10	0
bin	11	1
bin	12	0
scalar DataCentricNet.host[7].nic.phy 	bitrate:min 	250000
attr interpolationmode  sample-hold
attr title  "tx bitrate, min"
attr unit  bps
scalar DataCentricNet.host[7].nic.phy 	bitrate:max 	250000
attr interpolationmode  sample-hold
attr title  "tx bitrate, max"
attr unit  bps
scalar DataCentricNet.host[7].nic.phy 	bitrate:timeavg 	250000
attr interpolationmode  sample-hold
attr title  "tx bitrate, timeavg"
attr unit  bps
scalar DataCentricNet.host[8].app 	trafficSent 	0
scalar DataCentricNet.host[8].app 	"total bytes received" 	0
scalar DataCentricNet.host[8].net 	"num of pkts forwarded" 	0
scalar DataCentricNet.host[8].nic.ifq 	queueLength:max 	0
attr interpolationmode  sample-hold
attr title  "queue length, max"
scalar DataCentricNet.host[8].nic.ifq 	queueLength:timeavg 	0
attr interpolationmode  sample-hold
attr title  "queue length, timeavg"
statistic DataCentricNet.host[8].nic.ifq 	queueingTime:histogram
field count 8
field mean 0
field stddev 0
field sum 0
field sqrsum 0
field min 0
field max 0
attr interpolationmode  none
attr title  "queueing time, histogram"
bin	-INF	0
bin	-0.5	0
bin	-0.46666666666667	0
bin	-0.43333333333333	0
bin	-0.4	0
bin	-0.36666666666667	0
bin	-0.33333333333333	0
bin	-0.3	0
bin	-0.26666666666667	0
bin	-0.23333333333333	0
bin	-0.2	0
bin	-0.16666666666667	0
bin	-0.13333333333333	0
bin	-0.1	0
bin	-0.066666666666667	0
bin	-0.033333333333333	0
bin	-6.9388939039072e-018	8
bin	0.033333333333333	0
bin	0.066666666666667	0
bin	0.1	0
bin	0.13333333333333	0
bin	0.16666666666667	0
bin	0.2	0
bin	0.23333333333333	0
bin	0.26666666666667	0
bin	0.3	0
bin	0.33333333333333	0
bin	0.36666666666667	0
bin	0.4	0
bin	0.43333333333333	0
bin	0.46666666666667	0
bin	0.5	0
scalar DataCentricNet.host[8].nic.ifq 	dropPk:count 	0
attr interpolationmode  none
attr source  dropPkByQueue
attr title  "dropped packets, count"
scalar DataCentricNet.host[8].nic.ifq 	dropPk:sum(packetBytes) 	0
attr interpolationmode  none
attr source  dropPkByQueue
attr title  "dropped packets, sum(packetBytes)"
scalar DataCentricNet.host[8].nic.mac 	nbTxFrames 	8
scalar DataCentricNet.host[8].nic.mac 	nbRxFrames 	0
scalar DataCentricNet.host[8].nic.mac 	nbDroppedFrames 	0
scalar DataCentricNet.host[8].nic.mac 	nbMissedAcks 	0
scalar DataCentricNet.host[8].nic.mac 	nbRecvdAcks 	0
scalar DataCentricNet.host[8].nic.mac 	nbTxAcks 	0
scalar DataCentricNet.host[8].nic.mac 	nbDuplicates 	0
scalar DataCentricNet.host[8].nic.mac 	meanBackoff 	0.0016
scalar DataCentricNet.host[8].nic.mac 	nbBackoffs 	10
scalar DataCentricNet.host[8].nic.mac 	backoffDurations 	0.016
scalar DataCentricNet.host[8].nic.phy 	lossRate:min 	0.24
attr interpolationmode  backward-sample-hold
attr title  "packet loss rate, min"
scalar DataCentricNet.host[8].nic.phy 	lossRate:max 	0.24
attr interpolationmode  backward-sample-hold
attr title  "packet loss rate, max"
scalar DataCentricNet.host[8].nic.phy 	lossRate:timeavg 	0.24
attr interpolationmode  backward-sample-hold
attr title  "packet loss rate, timeavg"
scalar DataCentricNet.host[8].nic.phy 	radioState:count 	247
attr interpolationmode  sample-hold
attr title  "radio state (enum), count"
statistic DataCentricNet.host[8].nic.phy 	channelNo:histogram
field count 1
field mean 11
field stddev -1.#IND
field sum 11
field sqrsum 121
field min 11
field max 11
attr interpolationmode  sample-hold
attr title  "channel no, histogram"
bin	-INF	0
bin	10	0
bin	11	1
bin	12	0
scalar DataCentricNet.host[8].nic.phy 	bitrate:min 	250000
attr interpolationmode  sample-hold
attr title  "tx bitrate, min"
attr unit  bps
scalar DataCentricNet.host[8].nic.phy 	bitrate:max 	250000
attr interpolationmode  sample-hold
attr title  "tx bitrate, max"
attr unit  bps
scalar DataCentricNet.host[8].nic.phy 	bitrate:timeavg 	250000
attr interpolationmode  sample-hold
attr title  "tx bitrate, timeavg"
attr unit  bps
scalar DataCentricNet.host[9].app 	trafficSent 	0
scalar DataCentricNet.host[9].app 	"total bytes received" 	0
scalar DataCentricNet.host[9].net 	"num of pkts forwarded" 	0
scalar DataCentricNet.host[9].nic.ifq 	queueLength:max 	0
attr interpolationmode  sample-hold
attr title  "queue length, max"
scalar DataCentricNet.host[9].nic.ifq 	queueLength:timeavg 	0
attr interpolationmode  sample-hold
attr title  "queue length, timeavg"
statistic DataCentricNet.host[9].nic.ifq 	queueingTime:histogram
field count 7
field mean 0
field stddev 0
field sum 0
field sqrsum 0
field min 0
field max 0
attr interpolationmode  none
attr title  "queueing time, histogram"
bin	-INF	0
bin	-0.5	0
bin	-0.46666666666667	0
bin	-0.43333333333333	0
bin	-0.4	0
bin	-0.36666666666667	0
bin	-0.33333333333333	0
bin	-0.3	0
bin	-0.26666666666667	0
bin	-0.23333333333333	0
bin	-0.2	0
bin	-0.16666666666667	0
bin	-0.13333333333333	0
bin	-0.1	0
bin	-0.066666666666667	0
bin	-0.033333333333333	0
bin	-6.9388939039072e-018	7
bin	0.033333333333333	0
bin	0.066666666666667	0
bin	0.1	0
bin	0.13333333333333	0
bin	0.16666666666667	0
bin	0.2	0
bin	0.23333333333333	0
bin	0.26666666666667	0
bin	0.3	0
bin	0.33333333333333	0
bin	0.36666666666667	0
bin	0.4	0
bin	0.43333333333333	0
bin	0.46666666666667	0
bin	0.5	0
scalar DataCentricNet.host[9].nic.ifq 	dropPk:count 	0
attr interpolationmode  none
attr source  dropPkByQueue
attr title  "dropped packets, count"
scalar DataCentricNet.host[9].nic.ifq 	dropPk:sum(packetBytes) 	0
attr interpolationmode  none
attr source  dropPkByQueue
attr title  "dropped packets, sum(packetBytes)"
scalar DataCentricNet.host[9].nic.mac 	nbTxFrames 	7
scalar DataCentricNet.host[9].nic.mac 	nbRxFrames 	0
scalar DataCentricNet.host[9].nic.mac 	nbDroppedFrames 	0
scalar DataCentricNet.host[9].nic.mac 	nbMissedAcks 	0
scalar DataCentricNet.host[9].nic.mac 	nbRecvdAcks 	0
scalar DataCentricNet.host[9].nic.mac 	nbTxAcks 	0
scalar DataCentricNet.host[9].nic.mac 	nbDuplicates 	0
scalar DataCentricNet.host[9].nic.mac 	meanBackoff 	0.00116
scalar DataCentricNet.host[9].nic.mac 	nbBackoffs 	8
scalar DataCentricNet.host[9].nic.mac 	backoffDurations 	0.00928
scalar DataCentricNet.host[9].nic.phy 	lossRate:min 	0.26
attr interpolationmode  backward-sample-hold
attr title  "packet loss rate, min"
scalar DataCentricNet.host[9].nic.phy 	lossRate:max 	0.26
attr interpolationmode  backward-sample-hold
attr title  "packet loss rate, max"
scalar DataCentricNet.host[9].nic.phy 	lossRate:timeavg 	0.26
attr interpolationmode  backward-sample-hold
attr title  "packet loss rate, timeavg"
scalar DataCentricNet.host[9].nic.phy 	radioState:count 	206
attr interpolationmode  sample-hold
attr title  "radio state (enum), count"
statistic DataCentricNet.host[9].nic.phy 	channelNo:histogram
field count 1
field mean 11
field stddev -1.#IND
field sum 11
field sqrsum 121
field min 11
field max 11
attr interpolationmode  sample-hold
attr title  "channel no, histogram"
bin	-INF	0
bin	10	0
bin	11	1
bin	12	0
scalar DataCentricNet.host[9].nic.phy 	bitrate:min 	250000
attr interpolationmode  sample-hold
attr title  "tx bitrate, min"
attr unit  bps
scalar DataCentricNet.host[9].nic.phy 	bitrate:max 	250000
attr interpolationmode  sample-hold
attr title  "tx bitrate, max"
attr unit  bps
scalar DataCentricNet.host[9].nic.phy 	bitrate:timeavg 	250000
attr interpolationmode  sample-hold
attr title  "tx bitrate, timeavg"
attr unit  bps
scalar DataCentricNet.host[10].app 	trafficSent 	0
scalar DataCentricNet.host[10].app 	"total bytes received" 	0
scalar DataCentricNet.host[10].net 	"num of pkts forwarded" 	0
scalar DataCentricNet.host[10].nic.ifq 	queueLength:max 	0
attr interpolationmode  sample-hold
attr title  "queue length, max"
scalar DataCentricNet.host[10].nic.ifq 	queueLength:timeavg 	0
attr interpolationmode  sample-hold
attr title  "queue length, timeavg"
statistic DataCentricNet.host[10].nic.ifq 	queueingTime:histogram
field count 3
field mean 0
field stddev 0
field sum 0
field sqrsum 0
field min 0
field max 0
attr interpolationmode  none
attr title  "queueing time, histogram"
bin	-INF	0
bin	-0.5	0
bin	-0.46666666666667	0
bin	-0.43333333333333	0
bin	-0.4	0
bin	-0.36666666666667	0
bin	-0.33333333333333	0
bin	-0.3	0
bin	-0.26666666666667	0
bin	-0.23333333333333	0
bin	-0.2	0
bin	-0.16666666666667	0
bin	-0.13333333333333	0
bin	-0.1	0
bin	-0.066666666666667	0
bin	-0.033333333333333	0
bin	-6.9388939039072e-018	3
bin	0.033333333333333	0
bin	0.066666666666667	0
bin	0.1	0
bin	0.13333333333333	0
bin	0.16666666666667	0
bin	0.2	0
bin	0.23333333333333	0
bin	0.26666666666667	0
bin	0.3	0
bin	0.33333333333333	0
bin	0.36666666666667	0
bin	0.4	0
bin	0.43333333333333	0
bin	0.46666666666667	0
bin	0.5	0
scalar DataCentricNet.host[10].nic.ifq 	dropPk:count 	0
attr interpolationmode  none
attr source  dropPkByQueue
attr title  "dropped packets, count"
scalar DataCentricNet.host[10].nic.ifq 	dropPk:sum(packetBytes) 	0
attr interpolationmode  none
attr source  dropPkByQueue
attr title  "dropped packets, sum(packetBytes)"
scalar DataCentricNet.host[10].nic.mac 	nbTxFrames 	3
scalar DataCentricNet.host[10].nic.mac 	nbRxFrames 	0
scalar DataCentricNet.host[10].nic.mac 	nbDroppedFrames 	0
scalar DataCentricNet.host[10].nic.mac 	nbMissedAcks 	0
scalar DataCentricNet.host[10].nic.mac 	nbRecvdAcks 	0
scalar DataCentricNet.host[10].nic.mac 	nbTxAcks 	0
scalar DataCentricNet.host[10].nic.mac 	nbDuplicates 	0
scalar DataCentricNet.host[10].nic.mac 	meanBackoff 	0.0014933333333333
scalar DataCentricNet.host[10].nic.mac 	nbBackoffs 	3
scalar DataCentricNet.host[10].nic.mac 	backoffDurations 	0.00448
scalar DataCentricNet.host[10].nic.phy 	lossRate:min 	0.16
attr interpolationmode  backward-sample-hold
attr title  "packet loss rate, min"
scalar DataCentricNet.host[10].nic.phy 	lossRate:max 	0.38
attr interpolationmode  backward-sample-hold
attr title  "packet loss rate, max"
scalar DataCentricNet.host[10].nic.phy 	lossRate:timeavg 	0.37959323560368
attr interpolationmode  backward-sample-hold
attr title  "packet loss rate, timeavg"
scalar DataCentricNet.host[10].nic.phy 	radioState:count 	258
attr interpolationmode  sample-hold
attr title  "radio state (enum), count"
statistic DataCentricNet.host[10].nic.phy 	channelNo:histogram
field count 1
field mean 11
field stddev -1.#IND
field sum 11
field sqrsum 121
field min 11
field max 11
attr interpolationmode  sample-hold
attr title  "channel no, histogram"
bin	-INF	0
bin	10	0
bin	11	1
bin	12	0
scalar DataCentricNet.host[10].nic.phy 	bitrate:min 	250000
attr interpolationmode  sample-hold
attr title  "tx bitrate, min"
attr unit  bps
scalar DataCentricNet.host[10].nic.phy 	bitrate:max 	250000
attr interpolationmode  sample-hold
attr title  "tx bitrate, max"
attr unit  bps
scalar DataCentricNet.host[10].nic.phy 	bitrate:timeavg 	250000
attr interpolationmode  sample-hold
attr title  "tx bitrate, timeavg"
attr unit  bps
scalar DataCentricNet.host[11].app 	trafficSent 	0
scalar DataCentricNet.host[11].app 	"total bytes received" 	0
scalar DataCentricNet.host[11].net 	"num of pkts forwarded" 	0
scalar DataCentricNet.host[11].nic.ifq 	queueLength:max 	0
attr interpolationmode  sample-hold
attr title  "queue length, max"
scalar DataCentricNet.host[11].nic.ifq 	queueLength:timeavg 	0
attr interpolationmode  sample-hold
attr title  "queue length, timeavg"
statistic DataCentricNet.host[11].nic.ifq 	queueingTime:histogram
field count 5
field mean 0
field stddev 0
field sum 0
field sqrsum 0
field min 0
field max 0
attr interpolationmode  none
attr title  "queueing time, histogram"
bin	-INF	0
bin	-0.5	0
bin	-0.46666666666667	0
bin	-0.43333333333333	0
bin	-0.4	0
bin	-0.36666666666667	0
bin	-0.33333333333333	0
bin	-0.3	0
bin	-0.26666666666667	0
bin	-0.23333333333333	0
bin	-0.2	0
bin	-0.16666666666667	0
bin	-0.13333333333333	0
bin	-0.1	0
bin	-0.066666666666667	0
bin	-0.033333333333333	0
bin	-6.9388939039072e-018	5
bin	0.033333333333333	0
bin	0.066666666666667	0
bin	0.1	0
bin	0.13333333333333	0
bin	0.16666666666667	0
bin	0.2	0
bin	0.23333333333333	0
bin	0.26666666666667	0
bin	0.3	0
bin	0.33333333333333	0
bin	0.36666666666667	0
bin	0.4	0
bin	0.43333333333333	0
bin	0.46666666666667	0
bin	0.5	0
scalar DataCentricNet.host[11].nic.ifq 	dropPk:count 	0
attr interpolationmode  none
attr source  dropPkByQueue
attr title  "dropped packets, count"
scalar DataCentricNet.host[11].nic.ifq 	dropPk:sum(packetBytes) 	0
attr interpolationmode  none
attr source  dropPkByQueue
attr title  "dropped packets, sum(packetBytes)"
scalar DataCentricNet.host[11].nic.mac 	nbTxFrames 	13
scalar DataCentricNet.host[11].nic.mac 	nbRxFrames 	1
scalar DataCentricNet.host[11].nic.mac 	nbDroppedFrames 	0
scalar DataCentricNet.host[11].nic.mac 	nbMissedAcks 	10
scalar DataCentricNet.host[11].nic.mac 	nbRecvdAcks 	1
scalar DataCentricNet.host[11].nic.mac 	nbTxAcks 	1
scalar DataCentricNet.host[11].nic.mac 	nbDuplicates 	0
scalar DataCentricNet.host[11].nic.mac 	meanBackoff 	0.00186
scalar DataCentricNet.host[11].nic.mac 	nbBackoffs 	16
scalar DataCentricNet.host[11].nic.mac 	backoffDurations 	0.02976
scalar DataCentricNet.host[11].nic.phy 	lossRate:min 	0.32
attr interpolationmode  backward-sample-hold
attr title  "packet loss rate, min"
scalar DataCentricNet.host[11].nic.phy 	lossRate:max 	0.36
attr interpolationmode  backward-sample-hold
attr title  "packet loss rate, max"
scalar DataCentricNet.host[11].nic.phy 	lossRate:timeavg 	0.32115202044848
attr interpolationmode  backward-sample-hold
attr title  "packet loss rate, timeavg"
scalar DataCentricNet.host[11].nic.phy 	radioState:count 	343
attr interpolationmode  sample-hold
attr title  "radio state (enum), count"
statistic DataCentricNet.host[11].nic.phy 	channelNo:histogram
field count 1
field mean 11
field stddev -1.#IND
field sum 11
field sqrsum 121
field min 11
field max 11
attr interpolationmode  sample-hold
attr title  "channel no, histogram"
bin	-INF	0
bin	10	0
bin	11	1
bin	12	0
scalar DataCentricNet.host[11].nic.phy 	bitrate:min 	250000
attr interpolationmode  sample-hold
attr title  "tx bitrate, min"
attr unit  bps
scalar DataCentricNet.host[11].nic.phy 	bitrate:max 	250000
attr interpolationmode  sample-hold
attr title  "tx bitrate, max"
attr unit  bps
scalar DataCentricNet.host[11].nic.phy 	bitrate:timeavg 	250000
attr interpolationmode  sample-hold
attr title  "tx bitrate, timeavg"
attr unit  bps
scalar DataCentricNet.host[12].app 	trafficSent 	0
scalar DataCentricNet.host[12].app 	"total bytes received" 	0
scalar DataCentricNet.host[12].net 	"num of pkts forwarded" 	0
scalar DataCentricNet.host[12].nic.ifq 	queueLength:max 	0
attr interpolationmode  sample-hold
attr title  "queue length, max"
scalar DataCentricNet.host[12].nic.ifq 	queueLength:timeavg 	0
attr interpolationmode  sample-hold
attr title  "queue length, timeavg"
statistic DataCentricNet.host[12].nic.ifq 	queueingTime:histogram
field count 3
field mean 0
field stddev 0
field sum 0
field sqrsum 0
field min 0
field max 0
attr interpolationmode  none
attr title  "queueing time, histogram"
bin	-INF	0
bin	-0.5	0
bin	-0.46666666666667	0
bin	-0.43333333333333	0
bin	-0.4	0
bin	-0.36666666666667	0
bin	-0.33333333333333	0
bin	-0.3	0
bin	-0.26666666666667	0
bin	-0.23333333333333	0
bin	-0.2	0
bin	-0.16666666666667	0
bin	-0.13333333333333	0
bin	-0.1	0
bin	-0.066666666666667	0
bin	-0.033333333333333	0
bin	-6.9388939039072e-018	3
bin	0.033333333333333	0
bin	0.066666666666667	0
bin	0.1	0
bin	0.13333333333333	0
bin	0.16666666666667	0
bin	0.2	0
bin	0.23333333333333	0
bin	0.26666666666667	0
bin	0.3	0
bin	0.33333333333333	0
bin	0.36666666666667	0
bin	0.4	0
bin	0.43333333333333	0
bin	0.46666666666667	0
bin	0.5	0
scalar DataCentricNet.host[12].nic.ifq 	dropPk:count 	0
attr interpolationmode  none
attr source  dropPkByQueue
attr title  "dropped packets, count"
scalar DataCentricNet.host[12].nic.ifq 	dropPk:sum(packetBytes) 	0
attr interpolationmode  none
attr source  dropPkByQueue
attr title  "dropped packets, sum(packetBytes)"
scalar DataCentricNet.host[12].nic.mac 	nbTxFrames 	3
scalar DataCentricNet.host[12].nic.mac 	nbRxFrames 	0
scalar DataCentricNet.host[12].nic.mac 	nbDroppedFrames 	0
scalar DataCentricNet.host[12].nic.mac 	nbMissedAcks 	0
scalar DataCentricNet.host[12].nic.mac 	nbRecvdAcks 	0
scalar DataCentricNet.host[12].nic.mac 	nbTxAcks 	0
scalar DataCentricNet.host[12].nic.mac 	nbDuplicates 	0
scalar DataCentricNet.host[12].nic.mac 	meanBackoff 	0.00272
scalar DataCentricNet.host[12].nic.mac 	nbBackoffs 	6
scalar DataCentricNet.host[12].nic.mac 	backoffDurations 	0.01632
scalar DataCentricNet.host[12].nic.phy 	lossRate:min 	0.32
attr interpolationmode  backward-sample-hold
attr title  "packet loss rate, min"
scalar DataCentricNet.host[12].nic.phy 	lossRate:max 	0.46
attr interpolationmode  backward-sample-hold
attr title  "packet loss rate, max"
scalar DataCentricNet.host[12].nic.phy 	lossRate:timeavg 	0.32298011796817
attr interpolationmode  backward-sample-hold
attr title  "packet loss rate, timeavg"
scalar DataCentricNet.host[12].nic.phy 	radioState:count 	321
attr interpolationmode  sample-hold
attr title  "radio state (enum), count"
statistic DataCentricNet.host[12].nic.phy 	channelNo:histogram
field count 1
field mean 11
field stddev -1.#IND
field sum 11
field sqrsum 121
field min 11
field max 11
attr interpolationmode  sample-hold
attr title  "channel no, histogram"
bin	-INF	0
bin	10	0
bin	11	1
bin	12	0
scalar DataCentricNet.host[12].nic.phy 	bitrate:min 	250000
attr interpolationmode  sample-hold
attr title  "tx bitrate, min"
attr unit  bps
scalar DataCentricNet.host[12].nic.phy 	bitrate:max 	250000
attr interpolationmode  sample-hold
attr title  "tx bitrate, max"
attr unit  bps
scalar DataCentricNet.host[12].nic.phy 	bitrate:timeavg 	250000
attr interpolationmode  sample-hold
attr title  "tx bitrate, timeavg"
attr unit  bps
scalar DataCentricNet.host[13].app 	trafficSent 	0
scalar DataCentricNet.host[13].app 	"total bytes received" 	0
scalar DataCentricNet.host[13].net 	"num of pkts forwarded" 	0
scalar DataCentricNet.host[13].nic.ifq 	queueLength:max 	0
attr interpolationmode  sample-hold
attr title  "queue length, max"
scalar DataCentricNet.host[13].nic.ifq 	queueLength:timeavg 	0
attr interpolationmode  sample-hold
attr title  "queue length, timeavg"
statistic DataCentricNet.host[13].nic.ifq 	queueingTime:histogram
field count 4
field mean 0
field stddev 0
field sum 0
field sqrsum 0
field min 0
field max 0
attr interpolationmode  none
attr title  "queueing time, histogram"
bin	-INF	0
bin	-0.5	0
bin	-0.46666666666667	0
bin	-0.43333333333333	0
bin	-0.4	0
bin	-0.36666666666667	0
bin	-0.33333333333333	0
bin	-0.3	0
bin	-0.26666666666667	0
bin	-0.23333333333333	0
bin	-0.2	0
bin	-0.16666666666667	0
bin	-0.13333333333333	0
bin	-0.1	0
bin	-0.066666666666667	0
bin	-0.033333333333333	0
bin	-6.9388939039072e-018	4
bin	0.033333333333333	0
bin	0.066666666666667	0
bin	0.1	0
bin	0.13333333333333	0
bin	0.16666666666667	0
bin	0.2	0
bin	0.23333333333333	0
bin	0.26666666666667	0
bin	0.3	0
bin	0.33333333333333	0
bin	0.36666666666667	0
bin	0.4	0
bin	0.43333333333333	0
bin	0.46666666666667	0
bin	0.5	0
scalar DataCentricNet.host[13].nic.ifq 	dropPk:count 	0
attr interpolationmode  none
attr source  dropPkByQueue
attr title  "dropped packets, count"
scalar DataCentricNet.host[13].nic.ifq 	dropPk:sum(packetBytes) 	0
attr interpolationmode  none
attr source  dropPkByQueue
attr title  "dropped packets, sum(packetBytes)"
scalar DataCentricNet.host[13].nic.mac 	nbTxFrames 	8
scalar DataCentricNet.host[13].nic.mac 	nbRxFrames 	0
scalar DataCentricNet.host[13].nic.mac 	nbDroppedFrames 	0
scalar DataCentricNet.host[13].nic.mac 	nbMissedAcks 	5
scalar DataCentricNet.host[13].nic.mac 	nbRecvdAcks 	0
scalar DataCentricNet.host[13].nic.mac 	nbTxAcks 	0
scalar DataCentricNet.host[13].nic.mac 	nbDuplicates 	0
scalar DataCentricNet.host[13].nic.mac 	meanBackoff 	0.00192
scalar DataCentricNet.host[13].nic.mac 	nbBackoffs 	13
scalar DataCentricNet.host[13].nic.mac 	backoffDurations 	0.02496
scalar DataCentricNet.host[13].nic.phy 	lossRate:min 	0.4
attr interpolationmode  backward-sample-hold
attr title  "packet loss rate, min"
scalar DataCentricNet.host[13].nic.phy 	lossRate:max 	0.48
attr interpolationmode  backward-sample-hold
attr title  "packet loss rate, max"
scalar DataCentricNet.host[13].nic.phy 	lossRate:timeavg 	0.40168993935442
attr interpolationmode  backward-sample-hold
attr title  "packet loss rate, timeavg"
scalar DataCentricNet.host[13].nic.phy 	radioState:count 	346
attr interpolationmode  sample-hold
attr title  "radio state (enum), count"
statistic DataCentricNet.host[13].nic.phy 	channelNo:histogram
field count 1
field mean 11
field stddev -1.#IND
field sum 11
field sqrsum 121
field min 11
field max 11
attr interpolationmode  sample-hold
attr title  "channel no, histogram"
bin	-INF	0
bin	10	0
bin	11	1
bin	12	0
scalar DataCentricNet.host[13].nic.phy 	bitrate:min 	250000
attr interpolationmode  sample-hold
attr title  "tx bitrate, min"
attr unit  bps
scalar DataCentricNet.host[13].nic.phy 	bitrate:max 	250000
attr interpolationmode  sample-hold
attr title  "tx bitrate, max"
attr unit  bps
scalar DataCentricNet.host[13].nic.phy 	bitrate:timeavg 	250000
attr interpolationmode  sample-hold
attr title  "tx bitrate, timeavg"
attr unit  bps
scalar DataCentricNet.host[14].app 	trafficSent 	0
scalar DataCentricNet.host[14].app 	"total bytes received" 	0
scalar DataCentricNet.host[14].net 	"num of pkts forwarded" 	0
scalar DataCentricNet.host[14].nic.ifq 	queueLength:max 	0
attr interpolationmode  sample-hold
attr title  "queue length, max"
scalar DataCentricNet.host[14].nic.ifq 	queueLength:timeavg 	0
attr interpolationmode  sample-hold
attr title  "queue length, timeavg"
statistic DataCentricNet.host[14].nic.ifq 	queueingTime:histogram
field count 4
field mean 0
field stddev 0
field sum 0
field sqrsum 0
field min 0
field max 0
attr interpolationmode  none
attr title  "queueing time, histogram"
bin	-INF	0
bin	-0.5	0
bin	-0.46666666666667	0
bin	-0.43333333333333	0
bin	-0.4	0
bin	-0.36666666666667	0
bin	-0.33333333333333	0
bin	-0.3	0
bin	-0.26666666666667	0
bin	-0.23333333333333	0
bin	-0.2	0
bin	-0.16666666666667	0
bin	-0.13333333333333	0
bin	-0.1	0
bin	-0.066666666666667	0
bin	-0.033333333333333	0
bin	-6.9388939039072e-018	4
bin	0.033333333333333	0
bin	0.066666666666667	0
bin	0.1	0
bin	0.13333333333333	0
bin	0.16666666666667	0
bin	0.2	0
bin	0.23333333333333	0
bin	0.26666666666667	0
bin	0.3	0
bin	0.33333333333333	0
bin	0.36666666666667	0
bin	0.4	0
bin	0.43333333333333	0
bin	0.46666666666667	0
bin	0.5	0
scalar DataCentricNet.host[14].nic.ifq 	dropPk:count 	0
attr interpolationmode  none
attr source  dropPkByQueue
attr title  "dropped packets, count"
scalar DataCentricNet.host[14].nic.ifq 	dropPk:sum(packetBytes) 	0
attr interpolationmode  none
attr source  dropPkByQueue
attr title  "dropped packets, sum(packetBytes)"
scalar DataCentricNet.host[14].nic.mac 	nbTxFrames 	8
scalar DataCentricNet.host[14].nic.mac 	nbRxFrames 	0
scalar DataCentricNet.host[14].nic.mac 	nbDroppedFrames 	0
scalar DataCentricNet.host[14].nic.mac 	nbMissedAcks 	5
scalar DataCentricNet.host[14].nic.mac 	nbRecvdAcks 	0
scalar DataCentricNet.host[14].nic.mac 	nbTxAcks 	0
scalar DataCentricNet.host[14].nic.mac 	nbDuplicates 	0
scalar DataCentricNet.host[14].nic.mac 	meanBackoff 	0.00256
scalar DataCentricNet.host[14].nic.mac 	nbBackoffs 	15
scalar DataCentricNet.host[14].nic.mac 	backoffDurations 	0.0384
scalar DataCentricNet.host[14].nic.phy 	lossRate:min 	0.38
attr interpolationmode  backward-sample-hold
attr title  "packet loss rate, min"
scalar DataCentricNet.host[14].nic.phy 	lossRate:max 	0.54
attr interpolationmode  backward-sample-hold
attr title  "packet loss rate, max"
scalar DataCentricNet.host[14].nic.phy 	lossRate:timeavg 	0.38388040278843
attr interpolationmode  backward-sample-hold
attr title  "packet loss rate, timeavg"
scalar DataCentricNet.host[14].nic.phy 	radioState:count 	357
attr interpolationmode  sample-hold
attr title  "radio state (enum), count"
statistic DataCentricNet.host[14].nic.phy 	channelNo:histogram
field count 1
field mean 11
field stddev -1.#IND
field sum 11
field sqrsum 121
field min 11
field max 11
attr interpolationmode  sample-hold
attr title  "channel no, histogram"
bin	-INF	0
bin	10	0
bin	11	1
bin	12	0
scalar DataCentricNet.host[14].nic.phy 	bitrate:min 	250000
attr interpolationmode  sample-hold
attr title  "tx bitrate, min"
attr unit  bps
scalar DataCentricNet.host[14].nic.phy 	bitrate:max 	250000
attr interpolationmode  sample-hold
attr title  "tx bitrate, max"
attr unit  bps
scalar DataCentricNet.host[14].nic.phy 	bitrate:timeavg 	250000
attr interpolationmode  sample-hold
attr title  "tx bitrate, timeavg"
attr unit  bps
scalar DataCentricNet.host[15].app 	trafficSent 	0
scalar DataCentricNet.host[15].app 	"total bytes received" 	0
scalar DataCentricNet.host[15].net 	"num of pkts forwarded" 	0
scalar DataCentricNet.host[15].nic.ifq 	queueLength:max 	0
attr interpolationmode  sample-hold
attr title  "queue length, max"
scalar DataCentricNet.host[15].nic.ifq 	queueLength:timeavg 	0
attr interpolationmode  sample-hold
attr title  "queue length, timeavg"
statistic DataCentricNet.host[15].nic.ifq 	queueingTime:histogram
field count 4
field mean 0
field stddev 0
field sum 0
field sqrsum 0
field min 0
field max 0
attr interpolationmode  none
attr title  "queueing time, histogram"
bin	-INF	0
bin	-0.5	0
bin	-0.46666666666667	0
bin	-0.43333333333333	0
bin	-0.4	0
bin	-0.36666666666667	0
bin	-0.33333333333333	0
bin	-0.3	0
bin	-0.26666666666667	0
bin	-0.23333333333333	0
bin	-0.2	0
bin	-0.16666666666667	0
bin	-0.13333333333333	0
bin	-0.1	0
bin	-0.066666666666667	0
bin	-0.033333333333333	0
bin	-6.9388939039072e-018	4
bin	0.033333333333333	0
bin	0.066666666666667	0
bin	0.1	0
bin	0.13333333333333	0
bin	0.16666666666667	0
bin	0.2	0
bin	0.23333333333333	0
bin	0.26666666666667	0
bin	0.3	0
bin	0.33333333333333	0
bin	0.36666666666667	0
bin	0.4	0
bin	0.43333333333333	0
bin	0.46666666666667	0
bin	0.5	0
scalar DataCentricNet.host[15].nic.ifq 	dropPk:count 	0
attr interpolationmode  none
attr source  dropPkByQueue
attr title  "dropped packets, count"
scalar DataCentricNet.host[15].nic.ifq 	dropPk:sum(packetBytes) 	0
attr interpolationmode  none
attr source  dropPkByQueue
attr title  "dropped packets, sum(packetBytes)"
scalar DataCentricNet.host[15].nic.mac 	nbTxFrames 	4
scalar DataCentricNet.host[15].nic.mac 	nbRxFrames 	0
scalar DataCentricNet.host[15].nic.mac 	nbDroppedFrames 	0
scalar DataCentricNet.host[15].nic.mac 	nbMissedAcks 	0
scalar DataCentricNet.host[15].nic.mac 	nbRecvdAcks 	0
scalar DataCentricNet.host[15].nic.mac 	nbTxAcks 	0
scalar DataCentricNet.host[15].nic.mac 	nbDuplicates 	0
scalar DataCentricNet.host[15].nic.mac 	meanBackoff 	0.00448
scalar DataCentricNet.host[15].nic.mac 	nbBackoffs 	8
scalar DataCentricNet.host[15].nic.mac 	backoffDurations 	0.03584
scalar DataCentricNet.host[15].nic.phy 	lossRate:min 	0.38
attr interpolationmode  backward-sample-hold
attr title  "packet loss rate, min"
scalar DataCentricNet.host[15].nic.phy 	lossRate:max 	0.6
attr interpolationmode  backward-sample-hold
attr title  "packet loss rate, max"
scalar DataCentricNet.host[15].nic.phy 	lossRate:timeavg 	0.38529472994486
attr interpolationmode  backward-sample-hold
attr title  "packet loss rate, timeavg"
scalar DataCentricNet.host[15].nic.phy 	radioState:count 	345
attr interpolationmode  sample-hold
attr title  "radio state (enum), count"
statistic DataCentricNet.host[15].nic.phy 	channelNo:histogram
field count 1
field mean 11
field stddev -1.#IND
field sum 11
field sqrsum 121
field min 11
field max 11
attr interpolationmode  sample-hold
attr title  "channel no, histogram"
bin	-INF	0
bin	10	0
bin	11	1
bin	12	0
scalar DataCentricNet.host[15].nic.phy 	bitrate:min 	250000
attr interpolationmode  sample-hold
attr title  "tx bitrate, min"
attr unit  bps
scalar DataCentricNet.host[15].nic.phy 	bitrate:max 	250000
attr interpolationmode  sample-hold
attr title  "tx bitrate, max"
attr unit  bps
scalar DataCentricNet.host[15].nic.phy 	bitrate:timeavg 	250000
attr interpolationmode  sample-hold
attr title  "tx bitrate, timeavg"
attr unit  bps
scalar DataCentricNet.host[16].app 	trafficSent 	0
scalar DataCentricNet.host[16].app 	"total bytes received" 	0
scalar DataCentricNet.host[16].net 	"num of pkts forwarded" 	0
scalar DataCentricNet.host[16].nic.ifq 	queueLength:max 	0
attr interpolationmode  sample-hold
attr title  "queue length, max"
scalar DataCentricNet.host[16].nic.ifq 	queueLength:timeavg 	0
attr interpolationmode  sample-hold
attr title  "queue length, timeavg"
statistic DataCentricNet.host[16].nic.ifq 	queueingTime:histogram
field count 4
field mean 0
field stddev 0
field sum 0
field sqrsum 0
field min 0
field max 0
attr interpolationmode  none
attr title  "queueing time, histogram"
bin	-INF	0
bin	-0.5	0
bin	-0.46666666666667	0
bin	-0.43333333333333	0
bin	-0.4	0
bin	-0.36666666666667	0
bin	-0.33333333333333	0
bin	-0.3	0
bin	-0.26666666666667	0
bin	-0.23333333333333	0
bin	-0.2	0
bin	-0.16666666666667	0
bin	-0.13333333333333	0
bin	-0.1	0
bin	-0.066666666666667	0
bin	-0.033333333333333	0
bin	-6.9388939039072e-018	4
bin	0.033333333333333	0
bin	0.066666666666667	0
bin	0.1	0
bin	0.13333333333333	0
bin	0.16666666666667	0
bin	0.2	0
bin	0.23333333333333	0
bin	0.26666666666667	0
bin	0.3	0
bin	0.33333333333333	0
bin	0.36666666666667	0
bin	0.4	0
bin	0.43333333333333	0
bin	0.46666666666667	0
bin	0.5	0
scalar DataCentricNet.host[16].nic.ifq 	dropPk:count 	0
attr interpolationmode  none
attr source  dropPkByQueue
attr title  "dropped packets, count"
scalar DataCentricNet.host[16].nic.ifq 	dropPk:sum(packetBytes) 	0
attr interpolationmode  none
attr source  dropPkByQueue
attr title  "dropped packets, sum(packetBytes)"
scalar DataCentricNet.host[16].nic.mac 	nbTxFrames 	4
scalar DataCentricNet.host[16].nic.mac 	nbRxFrames 	0
scalar DataCentricNet.host[16].nic.mac 	nbDroppedFrames 	0
scalar DataCentricNet.host[16].nic.mac 	nbMissedAcks 	0
scalar DataCentricNet.host[16].nic.mac 	nbRecvdAcks 	0
scalar DataCentricNet.host[16].nic.mac 	nbTxAcks 	0
scalar DataCentricNet.host[16].nic.mac 	nbDuplicates 	0
scalar DataCentricNet.host[16].nic.mac 	meanBackoff 	0.0017066666666667
scalar DataCentricNet.host[16].nic.mac 	nbBackoffs 	6
scalar DataCentricNet.host[16].nic.mac 	backoffDurations 	0.01024
scalar DataCentricNet.host[16].nic.phy 	lossRate:min 	0.3
attr interpolationmode  backward-sample-hold
attr title  "packet loss rate, min"
scalar DataCentricNet.host[16].nic.phy 	lossRate:max 	0.62
attr interpolationmode  backward-sample-hold
attr title  "packet loss rate, max"
scalar DataCentricNet.host[16].nic.phy 	lossRate:timeavg 	0.30933572332509
attr interpolationmode  backward-sample-hold
attr title  "packet loss rate, timeavg"
scalar DataCentricNet.host[16].nic.phy 	radioState:count 	338
attr interpolationmode  sample-hold
attr title  "radio state (enum), count"
statistic DataCentricNet.host[16].nic.phy 	channelNo:histogram
field count 1
field mean 11
field stddev -1.#IND
field sum 11
field sqrsum 121
field min 11
field max 11
attr interpolationmode  sample-hold
attr title  "channel no, histogram"
bin	-INF	0
bin	10	0
bin	11	1
bin	12	0
scalar DataCentricNet.host[16].nic.phy 	bitrate:min 	250000
attr interpolationmode  sample-hold
attr title  "tx bitrate, min"
attr unit  bps
scalar DataCentricNet.host[16].nic.phy 	bitrate:max 	250000
attr interpolationmode  sample-hold
attr title  "tx bitrate, max"
attr unit  bps
scalar DataCentricNet.host[16].nic.phy 	bitrate:timeavg 	250000
attr interpolationmode  sample-hold
attr title  "tx bitrate, timeavg"
attr unit  bps
scalar DataCentricNet.host[17].app 	trafficSent 	0
scalar DataCentricNet.host[17].app 	"total bytes received" 	0
scalar DataCentricNet.host[17].net 	"num of pkts forwarded" 	0
scalar DataCentricNet.host[17].nic.ifq 	queueLength:max 	0
attr interpolationmode  sample-hold
attr title  "queue length, max"
scalar DataCentricNet.host[17].nic.ifq 	queueLength:timeavg 	0
attr interpolationmode  sample-hold
attr title  "queue length, timeavg"
statistic DataCentricNet.host[17].nic.ifq 	queueingTime:histogram
field count 4
field mean 0
field stddev 0
field sum 0
field sqrsum 0
field min 0
field max 0
attr interpolationmode  none
attr title  "queueing time, histogram"
bin	-INF	0
bin	-0.5	0
bin	-0.46666666666667	0
bin	-0.43333333333333	0
bin	-0.4	0
bin	-0.36666666666667	0
bin	-0.33333333333333	0
bin	-0.3	0
bin	-0.26666666666667	0
bin	-0.23333333333333	0
bin	-0.2	0
bin	-0.16666666666667	0
bin	-0.13333333333333	0
bin	-0.1	0
bin	-0.066666666666667	0
bin	-0.033333333333333	0
bin	-6.9388939039072e-018	4
bin	0.033333333333333	0
bin	0.066666666666667	0
bin	0.1	0
bin	0.13333333333333	0
bin	0.16666666666667	0
bin	0.2	0
bin	0.23333333333333	0
bin	0.26666666666667	0
bin	0.3	0
bin	0.33333333333333	0
bin	0.36666666666667	0
bin	0.4	0
bin	0.43333333333333	0
bin	0.46666666666667	0
bin	0.5	0
scalar DataCentricNet.host[17].nic.ifq 	dropPk:count 	0
attr interpolationmode  none
attr source  dropPkByQueue
attr title  "dropped packets, count"
scalar DataCentricNet.host[17].nic.ifq 	dropPk:sum(packetBytes) 	0
attr interpolationmode  none
attr source  dropPkByQueue
attr title  "dropped packets, sum(packetBytes)"
scalar DataCentricNet.host[17].nic.mac 	nbTxFrames 	4
scalar DataCentricNet.host[17].nic.mac 	nbRxFrames 	0
scalar DataCentricNet.host[17].nic.mac 	nbDroppedFrames 	0
scalar DataCentricNet.host[17].nic.mac 	nbMissedAcks 	0
scalar DataCentricNet.host[17].nic.mac 	nbRecvdAcks 	0
scalar DataCentricNet.host[17].nic.mac 	nbTxAcks 	0
scalar DataCentricNet.host[17].nic.mac 	nbDuplicates 	0
scalar DataCentricNet.host[17].nic.mac 	meanBackoff 	0.0019657142857143
scalar DataCentricNet.host[17].nic.mac 	nbBackoffs 	7
scalar DataCentricNet.host[17].nic.mac 	backoffDurations 	0.01376
scalar DataCentricNet.host[17].nic.phy 	lossRate:min 	0.3
attr interpolationmode  backward-sample-hold
attr title  "packet loss rate, min"
scalar DataCentricNet.host[17].nic.phy 	lossRate:max 	0.5
attr interpolationmode  backward-sample-hold
attr title  "packet loss rate, max"
scalar DataCentricNet.host[17].nic.phy 	lossRate:timeavg 	0.3057001137002
attr interpolationmode  backward-sample-hold
attr title  "packet loss rate, timeavg"
scalar DataCentricNet.host[17].nic.phy 	radioState:count 	304
attr interpolationmode  sample-hold
attr title  "radio state (enum), count"
statistic DataCentricNet.host[17].nic.phy 	channelNo:histogram
field count 1
field mean 11
field stddev -1.#IND
field sum 11
field sqrsum 121
field min 11
field max 11
attr interpolationmode  sample-hold
attr title  "channel no, histogram"
bin	-INF	0
bin	10	0
bin	11	1
bin	12	0
scalar DataCentricNet.host[17].nic.phy 	bitrate:min 	250000
attr interpolationmode  sample-hold
attr title  "tx bitrate, min"
attr unit  bps
scalar DataCentricNet.host[17].nic.phy 	bitrate:max 	250000
attr interpolationmode  sample-hold
attr title  "tx bitrate, max"
attr unit  bps
scalar DataCentricNet.host[17].nic.phy 	bitrate:timeavg 	250000
attr interpolationmode  sample-hold
attr title  "tx bitrate, timeavg"
attr unit  bps
scalar DataCentricNet.host[18].app 	trafficSent 	0
scalar DataCentricNet.host[18].app 	"total bytes received" 	0
scalar DataCentricNet.host[18].net 	"num of pkts forwarded" 	0
scalar DataCentricNet.host[18].nic.ifq 	queueLength:max 	0
attr interpolationmode  sample-hold
attr title  "queue length, max"
scalar DataCentricNet.host[18].nic.ifq 	queueLength:timeavg 	0
attr interpolationmode  sample-hold
attr title  "queue length, timeavg"
statistic DataCentricNet.host[18].nic.ifq 	queueingTime:histogram
field count 6
field mean 0
field stddev 0
field sum 0
field sqrsum 0
field min 0
field max 0
attr interpolationmode  none
attr title  "queueing time, histogram"
bin	-INF	0
bin	-0.5	0
bin	-0.46666666666667	0
bin	-0.43333333333333	0
bin	-0.4	0
bin	-0.36666666666667	0
bin	-0.33333333333333	0
bin	-0.3	0
bin	-0.26666666666667	0
bin	-0.23333333333333	0
bin	-0.2	0
bin	-0.16666666666667	0
bin	-0.13333333333333	0
bin	-0.1	0
bin	-0.066666666666667	0
bin	-0.033333333333333	0
bin	-6.9388939039072e-018	6
bin	0.033333333333333	0
bin	0.066666666666667	0
bin	0.1	0
bin	0.13333333333333	0
bin	0.16666666666667	0
bin	0.2	0
bin	0.23333333333333	0
bin	0.26666666666667	0
bin	0.3	0
bin	0.33333333333333	0
bin	0.36666666666667	0
bin	0.4	0
bin	0.43333333333333	0
bin	0.46666666666667	0
bin	0.5	0
scalar DataCentricNet.host[18].nic.ifq 	dropPk:count 	0
attr interpolationmode  none
attr source  dropPkByQueue
attr title  "dropped packets, count"
scalar DataCentricNet.host[18].nic.ifq 	dropPk:sum(packetBytes) 	0
attr interpolationmode  none
attr source  dropPkByQueue
attr title  "dropped packets, sum(packetBytes)"
scalar DataCentricNet.host[18].nic.mac 	nbTxFrames 	6
scalar DataCentricNet.host[18].nic.mac 	nbRxFrames 	0
scalar DataCentricNet.host[18].nic.mac 	nbDroppedFrames 	0
scalar DataCentricNet.host[18].nic.mac 	nbMissedAcks 	0
scalar DataCentricNet.host[18].nic.mac 	nbRecvdAcks 	0
scalar DataCentricNet.host[18].nic.mac 	nbTxAcks 	0
scalar DataCentricNet.host[18].nic.mac 	nbDuplicates 	0
scalar DataCentricNet.host[18].nic.mac 	meanBackoff 	0.0019911111111111
scalar DataCentricNet.host[18].nic.mac 	nbBackoffs 	9
scalar DataCentricNet.host[18].nic.mac 	backoffDurations 	0.01792
scalar DataCentricNet.host[18].nic.phy 	lossRate:min 	0.34
attr interpolationmode  backward-sample-hold
attr title  "packet loss rate, min"
scalar DataCentricNet.host[18].nic.phy 	lossRate:max 	0.34
attr interpolationmode  backward-sample-hold
attr title  "packet loss rate, max"
scalar DataCentricNet.host[18].nic.phy 	lossRate:timeavg 	0.34
attr interpolationmode  backward-sample-hold
attr title  "packet loss rate, timeavg"
scalar DataCentricNet.host[18].nic.phy 	radioState:count 	273
attr interpolationmode  sample-hold
attr title  "radio state (enum), count"
statistic DataCentricNet.host[18].nic.phy 	channelNo:histogram
field count 1
field mean 11
field stddev -1.#IND
field sum 11
field sqrsum 121
field min 11
field max 11
attr interpolationmode  sample-hold
attr title  "channel no, histogram"
bin	-INF	0
bin	10	0
bin	11	1
bin	12	0
scalar DataCentricNet.host[18].nic.phy 	bitrate:min 	250000
attr interpolationmode  sample-hold
attr title  "tx bitrate, min"
attr unit  bps
scalar DataCentricNet.host[18].nic.phy 	bitrate:max 	250000
attr interpolationmode  sample-hold
attr title  "tx bitrate, max"
attr unit  bps
scalar DataCentricNet.host[18].nic.phy 	bitrate:timeavg 	250000
attr interpolationmode  sample-hold
attr title  "tx bitrate, timeavg"
attr unit  bps
scalar DataCentricNet.host[19].app 	trafficSent 	0
scalar DataCentricNet.host[19].app 	"total bytes received" 	0
scalar DataCentricNet.host[19].net 	"num of pkts forwarded" 	0
scalar DataCentricNet.host[19].nic.ifq 	queueLength:max 	0
attr interpolationmode  sample-hold
attr title  "queue length, max"
scalar DataCentricNet.host[19].nic.ifq 	queueLength:timeavg 	0
attr interpolationmode  sample-hold
attr title  "queue length, timeavg"
statistic DataCentricNet.host[19].nic.ifq 	queueingTime:histogram
field count 7
field mean 0
field stddev 0
field sum 0
field sqrsum 0
field min 0
field max 0
attr interpolationmode  none
attr title  "queueing time, histogram"
bin	-INF	0
bin	-0.5	0
bin	-0.46666666666667	0
bin	-0.43333333333333	0
bin	-0.4	0
bin	-0.36666666666667	0
bin	-0.33333333333333	0
bin	-0.3	0
bin	-0.26666666666667	0
bin	-0.23333333333333	0
bin	-0.2	0
bin	-0.16666666666667	0
bin	-0.13333333333333	0
bin	-0.1	0
bin	-0.066666666666667	0
bin	-0.033333333333333	0
bin	-6.9388939039072e-018	7
bin	0.033333333333333	0
bin	0.066666666666667	0
bin	0.1	0
bin	0.13333333333333	0
bin	0.16666666666667	0
bin	0.2	0
bin	0.23333333333333	0
bin	0.26666666666667	0
bin	0.3	0
bin	0.33333333333333	0
bin	0.36666666666667	0
bin	0.4	0
bin	0.43333333333333	0
bin	0.46666666666667	0
bin	0.5	0
scalar DataCentricNet.host[19].nic.ifq 	dropPk:count 	0
attr interpolationmode  none
attr source  dropPkByQueue
attr title  "dropped packets, count"
scalar DataCentricNet.host[19].nic.ifq 	dropPk:sum(packetBytes) 	0
attr interpolationmode  none
attr source  dropPkByQueue
attr title  "dropped packets, sum(packetBytes)"
scalar DataCentricNet.host[19].nic.mac 	nbTxFrames 	7
scalar DataCentricNet.host[19].nic.mac 	nbRxFrames 	0
scalar DataCentricNet.host[19].nic.mac 	nbDroppedFrames 	0
scalar DataCentricNet.host[19].nic.mac 	nbMissedAcks 	0
scalar DataCentricNet.host[19].nic.mac 	nbRecvdAcks 	0
scalar DataCentricNet.host[19].nic.mac 	nbTxAcks 	0
scalar DataCentricNet.host[19].nic.mac 	nbDuplicates 	0
scalar DataCentricNet.host[19].nic.mac 	meanBackoff 	0.002048
scalar DataCentricNet.host[19].nic.mac 	nbBackoffs 	10
scalar DataCentricNet.host[19].nic.mac 	backoffDurations 	0.02048
scalar DataCentricNet.host[19].nic.phy 	lossRate:min 	0.32
attr interpolationmode  backward-sample-hold
attr title  "packet loss rate, min"
scalar DataCentricNet.host[19].nic.phy 	lossRate:max 	0.32
attr interpolationmode  backward-sample-hold
attr title  "packet loss rate, max"
scalar DataCentricNet.host[19].nic.phy 	lossRate:timeavg 	0.32
attr interpolationmode  backward-sample-hold
attr title  "packet loss rate, timeavg"
scalar DataCentricNet.host[19].nic.phy 	radioState:count 	239
attr interpolationmode  sample-hold
attr title  "radio state (enum), count"
statistic DataCentricNet.host[19].nic.phy 	channelNo:histogram
field count 1
field mean 11
field stddev -1.#IND
field sum 11
field sqrsum 121
field min 11
field max 11
attr interpolationmode  sample-hold
attr title  "channel no, histogram"
bin	-INF	0
bin	10	0
bin	11	1
bin	12	0
scalar DataCentricNet.host[19].nic.phy 	bitrate:min 	250000
attr interpolationmode  sample-hold
attr title  "tx bitrate, min"
attr unit  bps
scalar DataCentricNet.host[19].nic.phy 	bitrate:max 	250000
attr interpolationmode  sample-hold
attr title  "tx bitrate, max"
attr unit  bps
scalar DataCentricNet.host[19].nic.phy 	bitrate:timeavg 	250000
attr interpolationmode  sample-hold
attr title  "tx bitrate, timeavg"
attr unit  bps
scalar DataCentricNet.host[20].app 	trafficSent 	0
scalar DataCentricNet.host[20].app 	"total bytes received" 	0
scalar DataCentricNet.host[20].net 	"num of pkts forwarded" 	0
scalar DataCentricNet.host[20].nic.ifq 	queueLength:max 	0
attr interpolationmode  sample-hold
attr title  "queue length, max"
scalar DataCentricNet.host[20].nic.ifq 	queueLength:timeavg 	0
attr interpolationmode  sample-hold
attr title  "queue length, timeavg"
statistic DataCentricNet.host[20].nic.ifq 	queueingTime:histogram
field count 8
field mean 0
field stddev 0
field sum 0
field sqrsum 0
field min 0
field max 0
attr interpolationmode  none
attr title  "queueing time, histogram"
bin	-INF	0
bin	-0.5	0
bin	-0.46666666666667	0
bin	-0.43333333333333	0
bin	-0.4	0
bin	-0.36666666666667	0
bin	-0.33333333333333	0
bin	-0.3	0
bin	-0.26666666666667	0
bin	-0.23333333333333	0
bin	-0.2	0
bin	-0.16666666666667	0
bin	-0.13333333333333	0
bin	-0.1	0
bin	-0.066666666666667	0
bin	-0.033333333333333	0
bin	-6.9388939039072e-018	8
bin	0.033333333333333	0
bin	0.066666666666667	0
bin	0.1	0
bin	0.13333333333333	0
bin	0.16666666666667	0
bin	0.2	0
bin	0.23333333333333	0
bin	0.26666666666667	0
bin	0.3	0
bin	0.33333333333333	0
bin	0.36666666666667	0
bin	0.4	0
bin	0.43333333333333	0
bin	0.46666666666667	0
bin	0.5	0
scalar DataCentricNet.host[20].nic.ifq 	dropPk:count 	0
attr interpolationmode  none
attr source  dropPkByQueue
attr title  "dropped packets, count"
scalar DataCentricNet.host[20].nic.ifq 	dropPk:sum(packetBytes) 	0
attr interpolationmode  none
attr source  dropPkByQueue
attr title  "dropped packets, sum(packetBytes)"
scalar DataCentricNet.host[20].nic.mac 	nbTxFrames 	15
scalar DataCentricNet.host[20].nic.mac 	nbRxFrames 	3
scalar DataCentricNet.host[20].nic.mac 	nbDroppedFrames 	0
scalar DataCentricNet.host[20].nic.mac 	nbMissedAcks 	7
scalar DataCentricNet.host[20].nic.mac 	nbRecvdAcks 	6
scalar DataCentricNet.host[20].nic.mac 	nbTxAcks 	3
scalar DataCentricNet.host[20].nic.mac 	nbDuplicates 	0
scalar DataCentricNet.host[20].nic.mac 	meanBackoff 	0.0022568421052632
scalar DataCentricNet.host[20].nic.mac 	nbBackoffs 	19
scalar DataCentricNet.host[20].nic.mac 	backoffDurations 	0.04288
scalar DataCentricNet.host[20].nic.phy 	lossRate:min 	0.18
attr interpolationmode  backward-sample-hold
attr title  "packet loss rate, min"
scalar DataCentricNet.host[20].nic.phy 	lossRate:max 	0.52
attr interpolationmode  backward-sample-hold
attr title  "packet loss rate, max"
scalar DataCentricNet.host[20].nic.phy 	lossRate:timeavg 	0.5194333510423
attr interpolationmode  backward-sample-hold
attr title  "packet loss rate, timeavg"
scalar DataCentricNet.host[20].nic.phy 	radioState:count 	339
attr interpolationmode  sample-hold
attr title  "radio state (enum), count"
statistic DataCentricNet.host[20].nic.phy 	channelNo:histogram
field count 1
field mean 11
field stddev -1.#IND
field sum 11
field sqrsum 121
field min 11
field max 11
attr interpolationmode  sample-hold
attr title  "channel no, histogram"
bin	-INF	0
bin	10	0
bin	11	1
bin	12	0
scalar DataCentricNet.host[20].nic.phy 	bitrate:min 	250000
attr interpolationmode  sample-hold
attr title  "tx bitrate, min"
attr unit  bps
scalar DataCentricNet.host[20].nic.phy 	bitrate:max 	250000
attr interpolationmode  sample-hold
attr title  "tx bitrate, max"
attr unit  bps
scalar DataCentricNet.host[20].nic.phy 	bitrate:timeavg 	250000
attr interpolationmode  sample-hold
attr title  "tx bitrate, timeavg"
attr unit  bps
scalar DataCentricNet.host[21].app 	trafficSent 	0
scalar DataCentricNet.host[21].app 	"total bytes received" 	0
scalar DataCentricNet.host[21].net 	"num of pkts forwarded" 	0
scalar DataCentricNet.host[21].nic.ifq 	queueLength:max 	0
attr interpolationmode  sample-hold
attr title  "queue length, max"
scalar DataCentricNet.host[21].nic.ifq 	queueLength:timeavg 	0
attr interpolationmode  sample-hold
attr title  "queue length, timeavg"
statistic DataCentricNet.host[21].nic.ifq 	queueingTime:histogram
field count 3
field mean 0
field stddev 0
field sum 0
field sqrsum 0
field min 0
field max 0
attr interpolationmode  none
attr title  "queueing time, histogram"
bin	-INF	0
bin	-0.5	0
bin	-0.46666666666667	0
bin	-0.43333333333333	0
bin	-0.4	0
bin	-0.36666666666667	0
bin	-0.33333333333333	0
bin	-0.3	0
bin	-0.26666666666667	0
bin	-0.23333333333333	0
bin	-0.2	0
bin	-0.16666666666667	0
bin	-0.13333333333333	0
bin	-0.1	0
bin	-0.066666666666667	0
bin	-0.033333333333333	0
bin	-6.9388939039072e-018	3
bin	0.033333333333333	0
bin	0.066666666666667	0
bin	0.1	0
bin	0.13333333333333	0
bin	0.16666666666667	0
bin	0.2	0
bin	0.23333333333333	0
bin	0.26666666666667	0
bin	0.3	0
bin	0.33333333333333	0
bin	0.36666666666667	0
bin	0.4	0
bin	0.43333333333333	0
bin	0.46666666666667	0
bin	0.5	0
scalar DataCentricNet.host[21].nic.ifq 	dropPk:count 	0
attr interpolationmode  none
attr source  dropPkByQueue
attr title  "dropped packets, count"
scalar DataCentricNet.host[21].nic.ifq 	dropPk:sum(packetBytes) 	0
attr interpolationmode  none
attr source  dropPkByQueue
attr title  "dropped packets, sum(packetBytes)"
scalar DataCentricNet.host[21].nic.mac 	nbTxFrames 	3
scalar DataCentricNet.host[21].nic.mac 	nbRxFrames 	2
scalar DataCentricNet.host[21].nic.mac 	nbDroppedFrames 	0
scalar DataCentricNet.host[21].nic.mac 	nbMissedAcks 	0
scalar DataCentricNet.host[21].nic.mac 	nbRecvdAcks 	1
scalar DataCentricNet.host[21].nic.mac 	nbTxAcks 	2
scalar DataCentricNet.host[21].nic.mac 	nbDuplicates 	1
scalar DataCentricNet.host[21].nic.mac 	meanBackoff 	0.001856
scalar DataCentricNet.host[21].nic.mac 	nbBackoffs 	5
scalar DataCentricNet.host[21].nic.mac 	backoffDurations 	0.00928
scalar DataCentricNet.host[21].nic.phy 	lossRate:min 	0.36
attr interpolationmode  backward-sample-hold
attr title  "packet loss rate, min"
scalar DataCentricNet.host[21].nic.phy 	lossRate:max 	0.48
attr interpolationmode  backward-sample-hold
attr title  "packet loss rate, max"
scalar DataCentricNet.host[21].nic.phy 	lossRate:timeavg 	0.36237398776161
attr interpolationmode  backward-sample-hold
attr title  "packet loss rate, timeavg"
scalar DataCentricNet.host[21].nic.phy 	radioState:count 	314
attr interpolationmode  sample-hold
attr title  "radio state (enum), count"
statistic DataCentricNet.host[21].nic.phy 	channelNo:histogram
field count 1
field mean 11
field stddev -1.#IND
field sum 11
field sqrsum 121
field min 11
field max 11
attr interpolationmode  sample-hold
attr title  "channel no, histogram"
bin	-INF	0
bin	10	0
bin	11	1
bin	12	0
scalar DataCentricNet.host[21].nic.phy 	bitrate:min 	250000
attr interpolationmode  sample-hold
attr title  "tx bitrate, min"
attr unit  bps
scalar DataCentricNet.host[21].nic.phy 	bitrate:max 	250000
attr interpolationmode  sample-hold
attr title  "tx bitrate, max"
attr unit  bps
scalar DataCentricNet.host[21].nic.phy 	bitrate:timeavg 	250000
attr interpolationmode  sample-hold
attr title  "tx bitrate, timeavg"
attr unit  bps
scalar DataCentricNet.host[22].app 	trafficSent 	0
scalar DataCentricNet.host[22].app 	"total bytes received" 	0
scalar DataCentricNet.host[22].net 	"num of pkts forwarded" 	0
scalar DataCentricNet.host[22].nic.ifq 	queueLength:max 	0
attr interpolationmode  sample-hold
attr title  "queue length, max"
scalar DataCentricNet.host[22].nic.ifq 	queueLength:timeavg 	0
attr interpolationmode  sample-hold
attr title  "queue length, timeavg"
statistic DataCentricNet.host[22].nic.ifq 	queueingTime:histogram
field count 4
field mean 0
field stddev 0
field sum 0
field sqrsum 0
field min 0
field max 0
attr interpolationmode  none
attr title  "queueing time, histogram"
bin	-INF	0
bin	-0.5	0
bin	-0.46666666666667	0
bin	-0.43333333333333	0
bin	-0.4	0
bin	-0.36666666666667	0
bin	-0.33333333333333	0
bin	-0.3	0
bin	-0.26666666666667	0
bin	-0.23333333333333	0
bin	-0.2	0
bin	-0.16666666666667	0
bin	-0.13333333333333	0
bin	-0.1	0
bin	-0.066666666666667	0
bin	-0.033333333333333	0
bin	-6.9388939039072e-018	4
bin	0.033333333333333	0
bin	0.066666666666667	0
bin	0.1	0
bin	0.13333333333333	0
bin	0.16666666666667	0
bin	0.2	0
bin	0.23333333333333	0
bin	0.26666666666667	0
bin	0.3	0
bin	0.33333333333333	0
bin	0.36666666666667	0
bin	0.4	0
bin	0.43333333333333	0
bin	0.46666666666667	0
bin	0.5	0
scalar DataCentricNet.host[22].nic.ifq 	dropPk:count 	0
attr interpolationmode  none
attr source  dropPkByQueue
attr title  "dropped packets, count"
scalar DataCentricNet.host[22].nic.ifq 	dropPk:sum(packetBytes) 	0
attr interpolationmode  none
attr source  dropPkByQueue
attr title  "dropped packets, sum(packetBytes)"
scalar DataCentricNet.host[22].nic.mac 	nbTxFrames 	7
scalar DataCentricNet.host[22].nic.mac 	nbRxFrames 	0
scalar DataCentricNet.host[22].nic.mac 	nbDroppedFrames 	0
scalar DataCentricNet.host[22].nic.mac 	nbMissedAcks 	3
scalar DataCentricNet.host[22].nic.mac 	nbRecvdAcks 	1
scalar DataCentricNet.host[22].nic.mac 	nbTxAcks 	0
scalar DataCentricNet.host[22].nic.mac 	nbDuplicates 	0
scalar DataCentricNet.host[22].nic.mac 	meanBackoff 	0.00496
scalar DataCentricNet.host[22].nic.mac 	nbBackoffs 	10
scalar DataCentricNet.host[22].nic.mac 	backoffDurations 	0.0496
scalar DataCentricNet.host[22].nic.phy 	lossRate:min 	0.38
attr interpolationmode  backward-sample-hold
attr title  "packet loss rate, min"
scalar DataCentricNet.host[22].nic.phy 	lossRate:max 	0.46
attr interpolationmode  backward-sample-hold
attr title  "packet loss rate, max"
scalar DataCentricNet.host[22].nic.phy 	lossRate:timeavg 	0.38128984042682
attr interpolationmode  backward-sample-hold
attr title  "packet loss rate, timeavg"
scalar DataCentricNet.host[22].nic.phy 	radioState:count 	360
attr interpolationmode  sample-hold
attr title  "radio state (enum), count"
statistic DataCentricNet.host[22].nic.phy 	channelNo:histogram
field count 1
field mean 11
field stddev -1.#IND
field sum 11
field sqrsum 121
field min 11
field max 11
attr interpolationmode  sample-hold
attr title  "channel no, histogram"
bin	-INF	0
bin	10	0
bin	11	1
bin	12	0
scalar DataCentricNet.host[22].nic.phy 	bitrate:min 	250000
attr interpolationmode  sample-hold
attr title  "tx bitrate, min"
attr unit  bps
scalar DataCentricNet.host[22].nic.phy 	bitrate:max 	250000
attr interpolationmode  sample-hold
attr title  "tx bitrate, max"
attr unit  bps
scalar DataCentricNet.host[22].nic.phy 	bitrate:timeavg 	250000
attr interpolationmode  sample-hold
attr title  "tx bitrate, timeavg"
attr unit  bps
scalar DataCentricNet.host[23].app 	trafficSent 	0
scalar DataCentricNet.host[23].app 	"total bytes received" 	0
scalar DataCentricNet.host[23].net 	"num of pkts forwarded" 	0
scalar DataCentricNet.host[23].nic.ifq 	queueLength:max 	0
attr interpolationmode  sample-hold
attr title  "queue length, max"
scalar DataCentricNet.host[23].nic.ifq 	queueLength:timeavg 	0
[...]
bin	-0.33333333333333	0
bin	-0.3	0
bin	-0.26666666666667	0
bin	-0.23333333333333	0
bin	-0.2	0
bin	-0.16666666666667	0
bin	-0.13333333333333	0
bin	-0.1	0
bin	-0.066666666666667	0
bin	-0.033333333333333	0
bin	-6.9388939039072e-018	7
bin	0.033333333333333	0
bin	0.066666666666667	0
bin	0.1	0
bin	0.13333333333333	0
bin	0.16666666666667	0
bin	0.2	0
bin	0.23333333333333	0
bin	0.26666666666667	0
bin	0.3	0
bin	0.33333333333333	0
bin	0.36666666666667	0
bin	0.4	0
bin	0.43333333333333	0
bin	0.46666666666667	0
bin	0.5	0
scalar DataCentricNet.host[94].nic.ifq 	dropPk:count 	0
attr interpolationmode  none
attr source  dropPkByQueue
attr title  "dropped packets, count"
scalar DataCentricNet.host[94].nic.ifq 	dropPk:sum(packetBytes) 	0
attr interpolationmode  none
attr source  dropPkByQueue
attr title  "dropped packets, sum(packetBytes)"
scalar DataCentricNet.host[94].nic.mac 	nbTxFrames 	7
scalar DataCentricNet.host[94].nic.mac 	nbRxFrames 	0
scalar DataCentricNet.host[94].nic.mac 	nbDroppedFrames 	0
scalar DataCentricNet.host[94].nic.mac 	nbMissedAcks 	0
scalar DataCentricNet.host[94].nic.mac 	nbRecvdAcks 	0
scalar DataCentricNet.host[94].nic.mac 	nbTxAcks 	0
scalar DataCentricNet.host[94].nic.mac 	nbDuplicates 	0
scalar DataCentricNet.host[94].nic.mac 	meanBackoff 	0.002752
scalar DataCentricNet.host[94].nic.mac 	nbBackoffs 	10
scalar DataCentricNet.host[94].nic.mac 	backoffDurations 	0.02752
scalar DataCentricNet.host[94].nic.phy 	lossRate:min 	0.54
attr interpolationmode  backward-sample-hold
attr title  "packet loss rate, min"
scalar DataCentricNet.host[94].nic.phy 	lossRate:max 	0.54
attr interpolationmode  backward-sample-hold
attr title  "packet loss rate, max"
scalar DataCentricNet.host[94].nic.phy 	lossRate:timeavg 	0.54
attr interpolationmode  backward-sample-hold
attr title  "packet loss rate, timeavg"
scalar DataCentricNet.host[94].nic.phy 	radioState:count 	284
attr interpolationmode  sample-hold
attr title  "radio state (enum), count"
statistic DataCentricNet.host[94].nic.phy 	channelNo:histogram
field count 1
field mean 11
field stddev -1.#IND
field sum 11
field sqrsum 121
field min 11
field max 11
attr interpolationmode  sample-hold
attr title  "channel no, histogram"
bin	-INF	0
bin	10	0
bin	11	1
bin	12	0
scalar DataCentricNet.host[94].nic.phy 	bitrate:min 	250000
attr interpolationmode  sample-hold
attr title  "tx bitrate, min"
attr unit  bps
scalar DataCentricNet.host[94].nic.phy 	bitrate:max 	250000
attr interpolationmode  sample-hold
attr title  "tx bitrate, max"
attr unit  bps
scalar DataCentricNet.host[94].nic.phy 	bitrate:timeavg 	250000
attr interpolationmode  sample-hold
attr title  "tx bitrate, timeavg"
attr unit  bps
scalar DataCentricNet.host[95].app 	trafficSent 	0
scalar DataCentricNet.host[95].app 	"total bytes received" 	0
scalar DataCentricNet.host[95].net 	"num of pkts forwarded" 	0
scalar DataCentricNet.host[95].nic.ifq 	queueLength:max 	0
attr interpolationmode  sample-hold
attr title  "queue length, max"
scalar DataCentricNet.host[95].nic.ifq 	queueLength:timeavg 	0
attr interpolationmode  sample-hold
attr title  "queue length, timeavg"
statistic DataCentricNet.host[95].nic.ifq 	queueingTime:histogram
field count 7
field mean 0
field stddev 0
field sum 0
field sqrsum 0
field min 0
field max 0
attr interpolationmode  none
attr title  "queueing time, histogram"
bin	-INF	0
bin	-0.5	0
bin	-0.46666666666667	0
bin	-0.43333333333333	0
bin	-0.4	0
bin	-0.36666666666667	0
bin	-0.33333333333333	0
bin	-0.3	0
bin	-0.26666666666667	0
bin	-0.23333333333333	0
bin	-0.2	0
bin	-0.16666666666667	0
bin	-0.13333333333333	0
bin	-0.1	0
bin	-0.066666666666667	0
bin	-0.033333333333333	0
bin	-6.9388939039072e-018	7
bin	0.033333333333333	0
bin	0.066666666666667	0
bin	0.1	0
bin	0.13333333333333	0
bin	0.16666666666667	0
bin	0.2	0
bin	0.23333333333333	0
bin	0.26666666666667	0
bin	0.3	0
bin	0.33333333333333	0
bin	0.36666666666667	0
bin	0.4	0
bin	0.43333333333333	0
bin	0.46666666666667	0
bin	0.5	0
scalar DataCentricNet.host[95].nic.ifq 	dropPk:count 	0
attr interpolationmode  none
attr source  dropPkByQueue
attr title  "dropped packets, count"
scalar DataCentricNet.host[95].nic.ifq 	dropPk:sum(packetBytes) 	0
attr interpolationmode  none
attr source  dropPkByQueue
attr title  "dropped packets, sum(packetBytes)"
scalar DataCentricNet.host[95].nic.mac 	nbTxFrames 	7
scalar DataCentricNet.host[95].nic.mac 	nbRxFrames 	0
scalar DataCentricNet.host[95].nic.mac 	nbDroppedFrames 	0
scalar DataCentricNet.host[95].nic.mac 	nbMissedAcks 	0
scalar DataCentricNet.host[95].nic.mac 	nbRecvdAcks 	0
scalar DataCentricNet.host[95].nic.mac 	nbTxAcks 	0
scalar DataCentricNet.host[95].nic.mac 	nbDuplicates 	0
scalar DataCentricNet.host[95].nic.mac 	meanBackoff 	0.0016
scalar DataCentricNet.host[95].nic.mac 	nbBackoffs 	9
scalar DataCentricNet.host[95].nic.mac 	backoffDurations 	0.0144
scalar DataCentricNet.host[95].nic.phy 	lossRate:min 	0.32
attr interpolationmode  backward-sample-hold
attr title  "packet loss rate, min"
scalar DataCentricNet.host[95].nic.phy 	lossRate:max 	0.52
attr interpolationmode  backward-sample-hold
attr title  "packet loss rate, max"
scalar DataCentricNet.host[95].nic.phy 	lossRate:timeavg 	0.32549538547272
attr interpolationmode  backward-sample-hold
attr title  "packet loss rate, timeavg"
scalar DataCentricNet.host[95].nic.phy 	radioState:count 	308
attr interpolationmode  sample-hold
attr title  "radio state (enum), count"
statistic DataCentricNet.host[95].nic.phy 	channelNo:histogram
field count 1
field mean 11
field stddev -1.#IND
field sum 11
field sqrsum 121
field min 11
field max 11
attr interpolationmode  sample-hold
attr title  "channel no, histogram"
bin	-INF	0
bin	10	0
bin	11	1
bin	12	0
scalar DataCentricNet.host[95].nic.phy 	bitrate:min 	250000
attr interpolationmode  sample-hold
attr title  "tx bitrate, min"
attr unit  bps
scalar DataCentricNet.host[95].nic.phy 	bitrate:max 	250000
attr interpolationmode  sample-hold
attr title  "tx bitrate, max"
attr unit  bps
scalar DataCentricNet.host[95].nic.phy 	bitrate:timeavg 	250000
attr interpolationmode  sample-hold
attr title  "tx bitrate, timeavg"
attr unit  bps
scalar DataCentricNet.host[96].app 	trafficSent 	0
scalar DataCentricNet.host[96].app 	"total bytes received" 	0
scalar DataCentricNet.host[96].net 	"num of pkts forwarded" 	0
scalar DataCentricNet.host[96].nic.ifq 	queueLength:max 	0
attr interpolationmode  sample-hold
attr title  "queue length, max"
scalar DataCentricNet.host[96].nic.ifq 	queueLength:timeavg 	0
attr interpolationmode  sample-hold
attr title  "queue length, timeavg"
statistic DataCentricNet.host[96].nic.ifq 	queueingTime:histogram
field count 8
field mean 0
field stddev 0
field sum 0
field sqrsum 0
field min 0
field max 0
attr interpolationmode  none
attr title  "queueing time, histogram"
bin	-INF	0
bin	-0.5	0
bin	-0.46666666666667	0
bin	-0.43333333333333	0
bin	-0.4	0
bin	-0.36666666666667	0
bin	-0.33333333333333	0
bin	-0.3	0
bin	-0.26666666666667	0
bin	-0.23333333333333	0
bin	-0.2	0
bin	-0.16666666666667	0
bin	-0.13333333333333	0
bin	-0.1	0
bin	-0.066666666666667	0
bin	-0.033333333333333	0
bin	-6.9388939039072e-018	8
bin	0.033333333333333	0
bin	0.066666666666667	0
bin	0.1	0
bin	0.13333333333333	0
bin	0.16666666666667	0
bin	0.2	0
bin	0.23333333333333	0
bin	0.26666666666667	0
bin	0.3	0
bin	0.33333333333333	0
bin	0.36666666666667	0
bin	0.4	0
bin	0.43333333333333	0
bin	0.46666666666667	0
bin	0.5	0
scalar DataCentricNet.host[96].nic.ifq 	dropPk:count 	0
attr interpolationmode  none
attr source  dropPkByQueue
attr title  "dropped packets, count"
scalar DataCentricNet.host[96].nic.ifq 	dropPk:sum(packetBytes) 	0
attr interpolationmode  none
attr source  dropPkByQueue
attr title  "dropped packets, sum(packetBytes)"
scalar DataCentricNet.host[96].nic.mac 	nbTxFrames 	8
scalar DataCentricNet.host[96].nic.mac 	nbRxFrames 	0
scalar DataCentricNet.host[96].nic.mac 	nbDroppedFrames 	0
scalar DataCentricNet.host[96].nic.mac 	nbMissedAcks 	0
scalar DataCentricNet.host[96].nic.mac 	nbRecvdAcks 	0
scalar DataCentricNet.host[96].nic.mac 	nbTxAcks 	0
scalar DataCentricNet.host[96].nic.mac 	nbDuplicates 	0
scalar DataCentricNet.host[96].nic.mac 	meanBackoff 	0.0020654545454545
scalar DataCentricNet.host[96].nic.mac 	nbBackoffs 	11
scalar DataCentricNet.host[96].nic.mac 	backoffDurations 	0.02272
scalar DataCentricNet.host[96].nic.phy 	lossRate:min 	0.32
attr interpolationmode  backward-sample-hold
attr title  "packet loss rate, min"
scalar DataCentricNet.host[96].nic.phy 	lossRate:max 	0.48
attr interpolationmode  backward-sample-hold
attr title  "packet loss rate, max"
scalar DataCentricNet.host[96].nic.phy 	lossRate:timeavg 	0.32362493345148
attr interpolationmode  backward-sample-hold
attr title  "packet loss rate, timeavg"
scalar DataCentricNet.host[96].nic.phy 	radioState:count 	311
attr interpolationmode  sample-hold
attr title  "radio state (enum), count"
statistic DataCentricNet.host[96].nic.phy 	channelNo:histogram
field count 1
field mean 11
field stddev -1.#IND
field sum 11
field sqrsum 121
field min 11
field max 11
attr interpolationmode  sample-hold
attr title  "channel no, histogram"
bin	-INF	0
bin	10	0
bin	11	1
bin	12	0
scalar DataCentricNet.host[96].nic.phy 	bitrate:min 	250000
attr interpolationmode  sample-hold
attr title  "tx bitrate, min"
attr unit  bps
scalar DataCentricNet.host[96].nic.phy 	bitrate:max 	250000
attr interpolationmode  sample-hold
attr title  "tx bitrate, max"
attr unit  bps
scalar DataCentricNet.host[96].nic.phy 	bitrate:timeavg 	250000
attr interpolationmode  sample-hold
attr title  "tx bitrate, timeavg"
attr unit  bps
scalar DataCentricNet.host[97].app 	trafficSent 	0
scalar DataCentricNet.host[97].app 	"total bytes received" 	0
scalar DataCentricNet.host[97].net 	"num of pkts forwarded" 	0
scalar DataCentricNet.host[97].nic.ifq 	queueLength:max 	0
attr interpolationmode  sample-hold
attr title  "queue length, max"
scalar DataCentricNet.host[97].nic.ifq 	queueLength:timeavg 	0
attr interpolationmode  sample-hold
attr title  "queue length, timeavg"
statistic DataCentricNet.host[97].nic.ifq 	queueingTime:histogram
field count 10
field mean 0
field stddev 0
field sum 0
field sqrsum 0
field min 0
field max 0
attr interpolationmode  none
attr title  "queueing time, histogram"
bin	-INF	0
bin	-0.5	0
bin	-0.46666666666667	0
bin	-0.43333333333333	0
bin	-0.4	0
bin	-0.36666666666667	0
bin	-0.33333333333333	0
bin	-0.3	0
bin	-0.26666666666667	0
bin	-0.23333333333333	0
bin	-0.2	0
bin	-0.16666666666667	0
bin	-0.13333333333333	0
bin	-0.1	0
bin	-0.066666666666667	0
bin	-0.033333333333333	0
bin	-6.9388939039072e-018	10
bin	0.033333333333333	0
bin	0.066666666666667	0
bin	0.1	0
bin	0.13333333333333	0
bin	0.16666666666667	0
bin	0.2	0
bin	0.23333333333333	0
bin	0.26666666666667	0
bin	0.3	0
bin	0.33333333333333	0
bin	0.36666666666667	0
bin	0.4	0
bin	0.43333333333333	0
bin	0.46666666666667	0
bin	0.5	0
scalar DataCentricNet.host[97].nic.ifq 	dropPk:count 	0
attr interpolationmode  none
attr source  dropPkByQueue
attr title  "dropped packets, count"
scalar DataCentricNet.host[97].nic.ifq 	dropPk:sum(packetBytes) 	0
attr interpolationmode  none
attr source  dropPkByQueue
attr title  "dropped packets, sum(packetBytes)"
scalar DataCentricNet.host[97].nic.mac 	nbTxFrames 	10
scalar DataCentricNet.host[97].nic.mac 	nbRxFrames 	0
scalar DataCentricNet.host[97].nic.mac 	nbDroppedFrames 	0
scalar DataCentricNet.host[97].nic.mac 	nbMissedAcks 	0
scalar DataCentricNet.host[97].nic.mac 	nbRecvdAcks 	0
scalar DataCentricNet.host[97].nic.mac 	nbTxAcks 	0
scalar DataCentricNet.host[97].nic.mac 	nbDuplicates 	0
scalar DataCentricNet.host[97].nic.mac 	meanBackoff 	0.0010181818181818
scalar DataCentricNet.host[97].nic.mac 	nbBackoffs 	11
scalar DataCentricNet.host[97].nic.mac 	backoffDurations 	0.0112
scalar DataCentricNet.host[97].nic.phy 	lossRate:min 	0.34
attr interpolationmode  backward-sample-hold
attr title  "packet loss rate, min"
scalar DataCentricNet.host[97].nic.phy 	lossRate:max 	0.48
attr interpolationmode  backward-sample-hold
attr title  "packet loss rate, max"
scalar DataCentricNet.host[97].nic.phy 	lossRate:timeavg 	0.34379910722348
attr interpolationmode  backward-sample-hold
attr title  "packet loss rate, timeavg"
scalar DataCentricNet.host[97].nic.phy 	radioState:count 	312
attr interpolationmode  sample-hold
attr title  "radio state (enum), count"
statistic DataCentricNet.host[97].nic.phy 	channelNo:histogram
field count 1
field mean 11
field stddev -1.#IND
field sum 11
field sqrsum 121
field min 11
field max 11
attr interpolationmode  sample-hold
attr title  "channel no, histogram"
bin	-INF	0
bin	10	0
bin	11	1
bin	12	0
scalar DataCentricNet.host[97].nic.phy 	bitrate:min 	250000
attr interpolationmode  sample-hold
attr title  "tx bitrate, min"
attr unit  bps
scalar DataCentricNet.host[97].nic.phy 	bitrate:max 	250000
attr interpolationmode  sample-hold
attr title  "tx bitrate, max"
attr unit  bps
scalar DataCentricNet.host[97].nic.phy 	bitrate:timeavg 	250000
attr interpolationmode  sample-hold
attr title  "tx bitrate, timeavg"
attr unit  bps
scalar DataCentricNet.host[98].app 	trafficSent 	0
scalar DataCentricNet.host[98].app 	"total bytes received" 	0
scalar DataCentricNet.host[98].net 	"num of pkts forwarded" 	0
scalar DataCentricNet.host[98].nic.ifq 	queueLength:max 	0
attr interpolationmode  sample-hold
attr title  "queue length, max"
scalar DataCentricNet.host[98].nic.ifq 	queueLength:timeavg 	0
attr interpolationmode  sample-hold
attr title  "queue length, timeavg"
statistic DataCentricNet.host[98].nic.ifq 	queueingTime:histogram
field count 9
field mean 0
field stddev 0
field sum 0
field sqrsum 0
field min 0
field max 0
attr interpolationmode  none
attr title  "queueing time, histogram"
bin	-INF	0
bin	-0.5	0
bin	-0.46666666666667	0
bin	-0.43333333333333	0
bin	-0.4	0
bin	-0.36666666666667	0
bin	-0.33333333333333	0
bin	-0.3	0
bin	-0.26666666666667	0
bin	-0.23333333333333	0
bin	-0.2	0
bin	-0.16666666666667	0
bin	-0.13333333333333	0
bin	-0.1	0
bin	-0.066666666666667	0
bin	-0.033333333333333	0
bin	-6.9388939039072e-018	9
bin	0.033333333333333	0
bin	0.066666666666667	0
bin	0.1	0
bin	0.13333333333333	0
bin	0.16666666666667	0
bin	0.2	0
bin	0.23333333333333	0
bin	0.26666666666667	0
bin	0.3	0
bin	0.33333333333333	0
bin	0.36666666666667	0
bin	0.4	0
bin	0.43333333333333	0
bin	0.46666666666667	0
bin	0.5	0
scalar DataCentricNet.host[98].nic.ifq 	dropPk:count 	0
attr interpolationmode  none
attr source  dropPkByQueue
attr title  "dropped packets, count"
scalar DataCentricNet.host[98].nic.ifq 	dropPk:sum(packetBytes) 	0
attr interpolationmode  none
attr source  dropPkByQueue
attr title  "dropped packets, sum(packetBytes)"
scalar DataCentricNet.host[98].nic.mac 	nbTxFrames 	9
scalar DataCentricNet.host[98].nic.mac 	nbRxFrames 	0
scalar DataCentricNet.host[98].nic.mac 	nbDroppedFrames 	0
scalar DataCentricNet.host[98].nic.mac 	nbMissedAcks 	0
scalar DataCentricNet.host[98].nic.mac 	nbRecvdAcks 	0
scalar DataCentricNet.host[98].nic.mac 	nbTxAcks 	0
scalar DataCentricNet.host[98].nic.mac 	nbDuplicates 	0
scalar DataCentricNet.host[98].nic.mac 	meanBackoff 	0.0022133333333333
scalar DataCentricNet.host[98].nic.mac 	nbBackoffs 	12
scalar DataCentricNet.host[98].nic.mac 	backoffDurations 	0.02656
scalar DataCentricNet.host[98].nic.phy 	lossRate:min 	0.4
attr interpolationmode  backward-sample-hold
attr title  "packet loss rate, min"
scalar DataCentricNet.host[98].nic.phy 	lossRate:max 	0.4
attr interpolationmode  backward-sample-hold
attr title  "packet loss rate, max"
scalar DataCentricNet.host[98].nic.phy 	lossRate:timeavg 	0.4
attr interpolationmode  backward-sample-hold
attr title  "packet loss rate, timeavg"
scalar DataCentricNet.host[98].nic.phy 	radioState:count 	302
attr interpolationmode  sample-hold
attr title  "radio state (enum), count"
statistic DataCentricNet.host[98].nic.phy 	channelNo:histogram
field count 1
field mean 11
field stddev -1.#IND
field sum 11
field sqrsum 121
field min 11
field max 11
attr interpolationmode  sample-hold
attr title  "channel no, histogram"
bin	-INF	0
bin	10	0
bin	11	1
bin	12	0
scalar DataCentricNet.host[98].nic.phy 	bitrate:min 	250000
attr interpolationmode  sample-hold
attr title  "tx bitrate, min"
attr unit  bps
scalar DataCentricNet.host[98].nic.phy 	bitrate:max 	250000
attr interpolationmode  sample-hold
attr title  "tx bitrate, max"
attr unit  bps
scalar DataCentricNet.host[98].nic.phy 	bitrate:timeavg 	250000
attr interpolationmode  sample-hold
attr title  "tx bitrate, timeavg"
attr unit  bps
scalar DataCentricNet.host[99].app 	trafficSent 	0
scalar DataCentricNet.host[99].app 	"total bytes received" 	0
scalar DataCentricNet.host[99].net 	"num of pkts forwarded" 	0
scalar DataCentricNet.host[99].nic.ifq 	queueLength:max 	0
attr interpolationmode  sample-hold
attr title  "queue length, max"
scalar DataCentricNet.host[99].nic.ifq 	queueLength:timeavg 	0
attr interpolationmode  sample-hold
attr title  "queue length, timeavg"
statistic DataCentricNet.host[99].nic.ifq 	queueingTime:histogram
field count 7
field mean 0
field stddev 0
field sum 0
field sqrsum 0
field min 0
field max 0
attr interpolationmode  none
attr title  "queueing time, histogram"
bin	-INF	0
bin	-0.5	0
bin	-0.46666666666667	0
bin	-0.43333333333333	0
bin	-0.4	0
bin	-0.36666666666667	0
bin	-0.33333333333333	0
bin	-0.3	0
bin	-0.26666666666667	0
bin	-0.23333333333333	0
bin	-0.2	0
bin	-0.16666666666667	0
bin	-0.13333333333333	0
bin	-0.1	0
bin	-0.066666666666667	0
bin	-0.033333333333333	0
bin	-6.9388939039072e-018	7
bin	0.033333333333333	0
bin	0.066666666666667	0
bin	0.1	0
bin	0.13333333333333	0
bin	0.16666666666667	0
bin	0.2	0
bin	0.23333333333333	0
bin	0.26666666666667	0
bin	0.3	0
bin	0.33333333333333	0
bin	0.36666666666667	0
bin	0.4	0
bin	0.43333333333333	0
bin	0.46666666666667	0
bin	0.5	0
scalar DataCentricNet.host[99].nic.ifq 	dropPk:count 	0
attr interpolationmode  none
attr source  dropPkByQueue
attr title  "dropped packets, count"
scalar DataCentricNet.host[99].nic.ifq 	dropPk:sum(packetBytes) 	0
attr interpolationmode  none
attr source  dropPkByQueue
attr title  "dropped packets, sum(packetBytes)"
scalar DataCentricNet.host[99].nic.mac 	nbTxFrames 	7
scalar DataCentricNet.host[99].nic.mac 	nbRxFrames 	0
scalar DataCentricNet.host[99].nic.mac 	nbDroppedFrames 	0
scalar DataCentricNet.host[99].nic.mac 	nbMissedAcks 	0
scalar DataCentricNet.host[99].nic.mac 	nbRecvdAcks 	0
scalar DataCentricNet.host[99].nic.mac 	nbTxAcks 	0
scalar DataCentricNet.host[99].nic.mac 	nbDuplicates 	0
scalar DataCentricNet.host[99].nic.mac 	meanBackoff 	0.0016355555555556
scalar DataCentricNet.host[99].nic.mac 	nbBackoffs 	9
scalar DataCentricNet.host[99].nic.mac 	backoffDurations 	0.01472
scalar DataCentricNet.host[99].nic.phy 	lossRate:min 	0.36
attr interpolationmode  backward-sample-hold
attr title  "packet loss rate, min"
scalar DataCentricNet.host[99].nic.phy 	lossRate:max 	0.36
attr interpolationmode  backward-sample-hold
attr title  "packet loss rate, max"
scalar DataCentricNet.host[99].nic.phy 	lossRate:timeavg 	0.36
attr interpolationmode  backward-sample-hold
attr title  "packet loss rate, timeavg"
scalar DataCentricNet.host[99].nic.phy 	radioState:count 	255
attr interpolationmode  sample-hold
attr title  "radio state (enum), count"
statistic DataCentricNet.host[99].nic.phy 	channelNo:histogram
field count 1
field mean 11
field stddev -1.#IND
field sum 11
field sqrsum 121
field min 11
field max 11
attr interpolationmode  sample-hold
attr title  "channel no, histogram"
bin	-INF	0
bin	10	0
bin	11	1
bin	12	0
scalar DataCentricNet.host[99].nic.phy 	bitrate:min 	250000
attr interpolationmode  sample-hold
attr title  "tx bitrate, min"
attr unit  bps
scalar DataCentricNet.host[99].nic.phy 	bitrate:max 	250000
attr interpolationmode  sample-hold
attr title  "tx bitrate, max"
attr unit  bps
scalar DataCentricNet.host[99].nic.phy 	bitrate:timeavg 	250000
attr interpolationmode  sample-hold
attr title  "tx bitrate, timeavg"
attr unit  bps
